data_str_m2_o1_o10_pcu_sym.201
_audit_creation_date              2020-01-03
_audit_creation_method            'Materials Studio'
_symmetry_space_group_name_H-M    'P1'
_symmetry_Int_Tables_number       1
_symmetry_cell_setting            triclinic
loop_
_symmetry_equiv_pos_as_xyz
  x,y,z
_cell_length_a                    26.9802
_cell_length_b                    32.8087
_cell_length_c                    28.9216
_cell_angle_alpha                 88.8830
_cell_angle_beta                  97.3512
_cell_angle_gamma                 92.0875
loop_
_atom_site_label
_atom_site_type_symbol
_atom_site_fract_x
_atom_site_fract_y
_atom_site_fract_z
_atom_site_U_iso_or_equiv
_atom_site_adp_type
_atom_site_occupancy
C1     C     0.16620   0.08716   0.16704   0.00000  Uiso   1.00
C2     C     0.16581   0.24566   0.16639   0.00000  Uiso   1.00
C3     C     0.06805   0.16794   0.15471   0.00000  Uiso   1.00
C4     C     0.26494   0.16616   0.17828   0.00000  Uiso   1.00
C5     C     0.01286   0.17272   0.14872   0.00000  Uiso   1.00
C6     C     0.31912   0.15955   0.18338   0.00000  Uiso   1.00
C7     C     0.17593   0.02006   0.12902   0.00000  Uiso   1.00
C8     C     0.13989   0.31011   0.19990   0.00000  Uiso   1.00
C9     C     0.19250   0.31364   0.13879   0.00000  Uiso   1.00
C10    C     0.15099   0.01852   0.20605   0.00000  Uiso   1.00
C11    C     0.16301   0.28998   0.16614   0.00000  Uiso   1.00
C12    C     0.16513   0.04189   0.16779   0.00000  Uiso   1.00
C13    C     0.13486   0.14135   0.02153   0.00000  Uiso   1.00
C14    C     0.19705   0.19329   0.31148   0.00000  Uiso   1.00
C15    C     0.13574   0.14077   0.30548   0.00000  Uiso   1.00
C16    C     0.19607   0.19380   0.02738   0.00000  Uiso   1.00
Cu17   Cu    0.16667   0.16667   0.21355   0.00000  Uiso   1.00
Cu18   Cu    0.16667   0.16666   0.11978   0.00000  Uiso   1.00
N19    N     0.16668   0.16668   0.28403   0.00000  Uiso   1.00
N20    N     0.16665   0.16666   0.04931   0.00000  Uiso   1.00
O21    O     0.16666   0.10655   0.20625   0.00000  Uiso   1.00
O22    O     0.16667   0.22678   0.12709   0.00000  Uiso   1.00
O23    O     0.16666   0.10654   0.12706   0.00000  Uiso   1.00
O24    O     0.16667   0.22679   0.20628   0.00000  Uiso   1.00
O25    O     0.09161   0.16667   0.19712   0.00000  Uiso   1.00
O26    O     0.24172   0.16666   0.13621   0.00000  Uiso   1.00
O27    O     0.09161   0.16666   0.11793   0.00000  Uiso   1.00
O28    O     0.24172   0.16667   0.21540   0.00000  Uiso   1.00
O29    O     0.32144   0.19667   0.11277   0.00000  Uiso   1.00
C30    C     0.00791   0.19777   0.06981   0.00000  Uiso   1.00
H31    H     0.30967   0.19897   0.04146   0.00000  Uiso   1.00
H32    H     0.02553   0.16933   0.06184   0.00000  Uiso   1.00
C33    C     0.04013   0.23687   0.06594   0.00000  Uiso   1.00
H34    H     0.01700   0.26373   0.06912   0.00000  Uiso   1.00
H35    H     0.07150   0.23837   0.09463   0.00000  Uiso   1.00
C36    C     0.06070   0.23988   0.01940   0.00000  Uiso   1.00
H37    H     0.08343   0.21321   0.01469   0.00000  Uiso   1.00
H38    H     0.08474   0.26800   0.01843   0.00000  Uiso   1.00
H39    H     0.02949   0.24122   0.32377   0.00000  Uiso   1.00
O40    O     0.00928   0.14215   0.22431   0.00000  Uiso   1.00
C41    C     0.31677   0.10659   0.23894   0.00000  Uiso   1.00
H42    H     0.00104   0.07949   0.22717   0.00000  Uiso   1.00
H43    H     0.27724   0.10211   0.22361   0.00000  Uiso   1.00
C44    C     0.31943   0.10634   0.29222   0.00000  Uiso   1.00
H45    H     0.01623   0.12774   0.30770   0.00000  Uiso   1.00
H46    H     0.28420   0.11816   0.30160   0.00000  Uiso   1.00
C47    C     0.32873   0.06379   0.31375   0.00000  Uiso   1.00
H48    H     0.30968   0.03941   0.29155   0.00000  Uiso   1.00
H49    H     0.31589   0.06201   0.01533   0.00000  Uiso   1.00
H50    H     0.03569   0.05736   0.31799   0.00000  Uiso   1.00
C51    C     0.13900   0.02119   0.08845   0.00000  Uiso   1.00
N52    N     0.10879   0.02010   0.05624   0.00000  Uiso   1.00
C53    C     0.11071   0.28862   0.23170   0.00000  Uiso   1.00
N54    N     0.08706   0.27131   0.25685   0.00000  Uiso   1.00
O55    O     0.24270   0.30349   0.14292   0.00000  Uiso   1.00
C56    C     0.27331   0.33039   0.11920   0.00000  Uiso   1.00
H57    H     0.25332   0.01006   0.08684   0.00000  Uiso   1.00
H58    H     0.30349   0.31226   0.10803   0.00000  Uiso   1.00
C59    C     0.29832   0.03001   0.15174   0.00000  Uiso   1.00
H60    H     0.26970   0.04921   0.16378   0.00000  Uiso   1.00
H61    H     0.31956   0.01525   0.18268   0.00000  Uiso   1.00
C62    C     0.00071   0.05706   0.12690   0.00000  Uiso   1.00
H63    H     0.02837   0.03816   0.11266   0.00000  Uiso   1.00
H64    H     0.02149   0.07900   0.15151   0.00000  Uiso   1.00
H65    H     0.31273   0.07453   0.09816   0.00000  Uiso   1.00
O66    O     0.15790   0.03300   0.25086   0.00000  Uiso   1.00
C67    C     0.20765   0.02517   0.27004   0.00000  Uiso   1.00
H68    H     0.23214   0.05070   0.25986   0.00000  Uiso   1.00
H69    H     0.22199   0.32963   0.25765   0.00000  Uiso   1.00
C70    C     0.21175   0.02120   0.32302   0.00000  Uiso   1.00
H71    H     0.18456   0.33064   0.33285   0.00000  Uiso   1.00
H72    H     0.24961   0.01107   0.00353   0.00000  Uiso   1.00
C73    C     0.20224   0.06154   0.01148   0.00000  Uiso   1.00
H74    H     0.21945   0.08767   0.32743   0.00000  Uiso   1.00
H75    H     0.21699   0.06224   0.04893   0.00000  Uiso   1.00
H76    H     0.16160   0.06517   0.00783   0.00000  Uiso   1.00
C77    C     0.09873   0.11674   0.04273   0.00000  Uiso   1.00
N78    N     0.06941   0.09769   0.06043   0.00000  Uiso   1.00
C79    C     0.23067   0.22114   0.29040   0.00000  Uiso   1.00
N80    N     0.25781   0.24357   0.27393   0.00000  Uiso   1.00
C81    C     0.10809   0.10997   0.27801   0.00000  Uiso   1.00
N82    N     0.08724   0.08455   0.25554   0.00000  Uiso   1.00
C83    C     0.22364   0.22549   0.05349   0.00000  Uiso   1.00
N84    N     0.24631   0.25153   0.07336   0.00000  Uiso   1.00
C85    C     0.49954   0.08716   0.16704   0.00000  Uiso   1.00
C86    C     0.49915   0.24566   0.16639   0.00000  Uiso   1.00
C87    C     0.40139   0.16794   0.15471   0.00000  Uiso   1.00
C88    C     0.59827   0.16616   0.17828   0.00000  Uiso   1.00
C89    C     0.34619   0.17272   0.14872   0.00000  Uiso   1.00
C90    C     0.65246   0.15955   0.18338   0.00000  Uiso   1.00
C91    C     0.50926   0.02006   0.12902   0.00000  Uiso   1.00
C92    C     0.47323   0.31011   0.19990   0.00000  Uiso   1.00
C93    C     0.52583   0.31364   0.13879   0.00000  Uiso   1.00
C94    C     0.48432   0.01852   0.20605   0.00000  Uiso   1.00
C95    C     0.49634   0.28998   0.16614   0.00000  Uiso   1.00
C96    C     0.49846   0.04189   0.16779   0.00000  Uiso   1.00
C97    C     0.46819   0.14135   0.02153   0.00000  Uiso   1.00
C98    C     0.53038   0.19329   0.31148   0.00000  Uiso   1.00
C99    C     0.46907   0.14077   0.30548   0.00000  Uiso   1.00
C100   C     0.52941   0.19380   0.02738   0.00000  Uiso   1.00
Cu101  Cu    0.50000   0.16667   0.21355   0.00000  Uiso   1.00
Cu102  Cu    0.50000   0.16666   0.11978   0.00000  Uiso   1.00
N103   N     0.50001   0.16668   0.28403   0.00000  Uiso   1.00
N104   N     0.49999   0.16666   0.04931   0.00000  Uiso   1.00
O105   O     0.50000   0.10655   0.20625   0.00000  Uiso   1.00
O106   O     0.50000   0.22678   0.12709   0.00000  Uiso   1.00
O107   O     0.50000   0.10654   0.12706   0.00000  Uiso   1.00
O108   O     0.50000   0.22679   0.20628   0.00000  Uiso   1.00
O109   O     0.42495   0.16667   0.19712   0.00000  Uiso   1.00
O110   O     0.57505   0.16666   0.13621   0.00000  Uiso   1.00
O111   O     0.42494   0.16666   0.11793   0.00000  Uiso   1.00
O112   O     0.57506   0.16667   0.21540   0.00000  Uiso   1.00
O113   O     0.65477   0.19667   0.11277   0.00000  Uiso   1.00
C114   C     0.34125   0.19777   0.06981   0.00000  Uiso   1.00
H115   H     0.64300   0.19897   0.04146   0.00000  Uiso   1.00
H116   H     0.35886   0.16933   0.06184   0.00000  Uiso   1.00
C117   C     0.37346   0.23687   0.06594   0.00000  Uiso   1.00
H118   H     0.35033   0.26373   0.06912   0.00000  Uiso   1.00
H119   H     0.40483   0.23837   0.09463   0.00000  Uiso   1.00
C120   C     0.39403   0.23988   0.01940   0.00000  Uiso   1.00
H121   H     0.41677   0.21321   0.01469   0.00000  Uiso   1.00
H122   H     0.41807   0.26800   0.01843   0.00000  Uiso   1.00
H123   H     0.36282   0.24122   0.32377   0.00000  Uiso   1.00
O124   O     0.34261   0.14215   0.22431   0.00000  Uiso   1.00
C125   C     0.65010   0.10659   0.23894   0.00000  Uiso   1.00
H126   H     0.33438   0.07949   0.22717   0.00000  Uiso   1.00
H127   H     0.61058   0.10211   0.22361   0.00000  Uiso   1.00
C128   C     0.65276   0.10634   0.29222   0.00000  Uiso   1.00
H129   H     0.34957   0.12774   0.30770   0.00000  Uiso   1.00
H130   H     0.61753   0.11816   0.30160   0.00000  Uiso   1.00
C131   C     0.66206   0.06379   0.31375   0.00000  Uiso   1.00
H132   H     0.64301   0.03941   0.29155   0.00000  Uiso   1.00
H133   H     0.64922   0.06201   0.01533   0.00000  Uiso   1.00
H134   H     0.36902   0.05736   0.31799   0.00000  Uiso   1.00
C135   C     0.47233   0.02119   0.08845   0.00000  Uiso   1.00
N136   N     0.44213   0.02010   0.05624   0.00000  Uiso   1.00
C137   C     0.44404   0.28862   0.23170   0.00000  Uiso   1.00
N138   N     0.42039   0.27131   0.25685   0.00000  Uiso   1.00
O139   O     0.57603   0.30349   0.14292   0.00000  Uiso   1.00
C140   C     0.60665   0.33039   0.11920   0.00000  Uiso   1.00
H141   H     0.58665   0.01006   0.08684   0.00000  Uiso   1.00
H142   H     0.63683   0.31226   0.10803   0.00000  Uiso   1.00
C143   C     0.63166   0.03001   0.15174   0.00000  Uiso   1.00
H144   H     0.60303   0.04921   0.16378   0.00000  Uiso   1.00
H145   H     0.65290   0.01525   0.18268   0.00000  Uiso   1.00
C146   C     0.33405   0.05706   0.12690   0.00000  Uiso   1.00
H147   H     0.36171   0.03816   0.11266   0.00000  Uiso   1.00
H148   H     0.35483   0.07900   0.15151   0.00000  Uiso   1.00
H149   H     0.64607   0.07453   0.09816   0.00000  Uiso   1.00
O150   O     0.49123   0.03300   0.25086   0.00000  Uiso   1.00
C151   C     0.54099   0.02517   0.27004   0.00000  Uiso   1.00
H152   H     0.56547   0.05070   0.25986   0.00000  Uiso   1.00
H153   H     0.55533   0.32963   0.25765   0.00000  Uiso   1.00
C154   C     0.54508   0.02120   0.32302   0.00000  Uiso   1.00
H155   H     0.51789   0.33064   0.33285   0.00000  Uiso   1.00
H156   H     0.58294   0.01107   0.00353   0.00000  Uiso   1.00
C157   C     0.53557   0.06154   0.01148   0.00000  Uiso   1.00
H158   H     0.55278   0.08767   0.32743   0.00000  Uiso   1.00
H159   H     0.55032   0.06224   0.04893   0.00000  Uiso   1.00
H160   H     0.49493   0.06517   0.00783   0.00000  Uiso   1.00
C161   C     0.43207   0.11674   0.04273   0.00000  Uiso   1.00
N162   N     0.40275   0.09769   0.06043   0.00000  Uiso   1.00
C163   C     0.56401   0.22114   0.29040   0.00000  Uiso   1.00
N164   N     0.59114   0.24357   0.27393   0.00000  Uiso   1.00
C165   C     0.44142   0.10997   0.27801   0.00000  Uiso   1.00
N166   N     0.42057   0.08455   0.25554   0.00000  Uiso   1.00
C167   C     0.55697   0.22549   0.05349   0.00000  Uiso   1.00
N168   N     0.57965   0.25153   0.07336   0.00000  Uiso   1.00
C169   C     0.83287   0.08716   0.16704   0.00000  Uiso   1.00
C170   C     0.83248   0.24566   0.16639   0.00000  Uiso   1.00
C171   C     0.73472   0.16794   0.15471   0.00000  Uiso   1.00
C172   C     0.93160   0.16616   0.17828   0.00000  Uiso   1.00
C173   C     0.67952   0.17272   0.14872   0.00000  Uiso   1.00
C174   C     0.98579   0.15955   0.18338   0.00000  Uiso   1.00
C175   C     0.84260   0.02006   0.12902   0.00000  Uiso   1.00
C176   C     0.80656   0.31011   0.19990   0.00000  Uiso   1.00
C177   C     0.85917   0.31364   0.13879   0.00000  Uiso   1.00
C178   C     0.81765   0.01852   0.20605   0.00000  Uiso   1.00
C179   C     0.82967   0.28998   0.16614   0.00000  Uiso   1.00
C180   C     0.83179   0.04189   0.16779   0.00000  Uiso   1.00
C181   C     0.80153   0.14135   0.02153   0.00000  Uiso   1.00
C182   C     0.86372   0.19329   0.31148   0.00000  Uiso   1.00
C183   C     0.80240   0.14077   0.30548   0.00000  Uiso   1.00
C184   C     0.86274   0.19380   0.02738   0.00000  Uiso   1.00
Cu185  Cu    0.83333   0.16667   0.21355   0.00000  Uiso   1.00
Cu186  Cu    0.83333   0.16666   0.11978   0.00000  Uiso   1.00
N187   N     0.83335   0.16668   0.28403   0.00000  Uiso   1.00
N188   N     0.83332   0.16666   0.04931   0.00000  Uiso   1.00
O189   O     0.83333   0.10655   0.20625   0.00000  Uiso   1.00
O190   O     0.83334   0.22678   0.12709   0.00000  Uiso   1.00
O191   O     0.83333   0.10654   0.12706   0.00000  Uiso   1.00
O192   O     0.83334   0.22679   0.20628   0.00000  Uiso   1.00
O193   O     0.75828   0.16667   0.19712   0.00000  Uiso   1.00
O194   O     0.90839   0.16666   0.13621   0.00000  Uiso   1.00
O195   O     0.75828   0.16666   0.11793   0.00000  Uiso   1.00
O196   O     0.90839   0.16667   0.21540   0.00000  Uiso   1.00
O197   O     0.98811   0.19667   0.11277   0.00000  Uiso   1.00
C198   C     0.67458   0.19777   0.06981   0.00000  Uiso   1.00
H199   H     0.97633   0.19897   0.04146   0.00000  Uiso   1.00
H200   H     0.69220   0.16933   0.06184   0.00000  Uiso   1.00
C201   C     0.70679   0.23687   0.06594   0.00000  Uiso   1.00
H202   H     0.68367   0.26373   0.06912   0.00000  Uiso   1.00
H203   H     0.73817   0.23837   0.09463   0.00000  Uiso   1.00
C204   C     0.72736   0.23988   0.01940   0.00000  Uiso   1.00
H205   H     0.75010   0.21321   0.01469   0.00000  Uiso   1.00
H206   H     0.75141   0.26800   0.01843   0.00000  Uiso   1.00
H207   H     0.69616   0.24122   0.32377   0.00000  Uiso   1.00
O208   O     0.67595   0.14215   0.22431   0.00000  Uiso   1.00
C209   C     0.98344   0.10659   0.23894   0.00000  Uiso   1.00
H210   H     0.66771   0.07949   0.22717   0.00000  Uiso   1.00
H211   H     0.94391   0.10211   0.22361   0.00000  Uiso   1.00
C212   C     0.98609   0.10634   0.29222   0.00000  Uiso   1.00
H213   H     0.68290   0.12774   0.30770   0.00000  Uiso   1.00
H214   H     0.95086   0.11816   0.30160   0.00000  Uiso   1.00
C215   C     0.99539   0.06379   0.31375   0.00000  Uiso   1.00
H216   H     0.97634   0.03941   0.29155   0.00000  Uiso   1.00
H217   H     0.98256   0.06201   0.01533   0.00000  Uiso   1.00
H218   H     0.70235   0.05736   0.31799   0.00000  Uiso   1.00
C219   C     0.80567   0.02119   0.08845   0.00000  Uiso   1.00
N220   N     0.77546   0.02010   0.05624   0.00000  Uiso   1.00
C221   C     0.77738   0.28862   0.23170   0.00000  Uiso   1.00
N222   N     0.75372   0.27131   0.25685   0.00000  Uiso   1.00
O223   O     0.90936   0.30349   0.14292   0.00000  Uiso   1.00
C224   C     0.93998   0.33039   0.11920   0.00000  Uiso   1.00
H225   H     0.91999   0.01006   0.08684   0.00000  Uiso   1.00
H226   H     0.97016   0.31226   0.10803   0.00000  Uiso   1.00
C227   C     0.96499   0.03001   0.15174   0.00000  Uiso   1.00
H228   H     0.93636   0.04921   0.16378   0.00000  Uiso   1.00
H229   H     0.98623   0.01525   0.18268   0.00000  Uiso   1.00
C230   C     0.66738   0.05706   0.12690   0.00000  Uiso   1.00
H231   H     0.69504   0.03816   0.11266   0.00000  Uiso   1.00
H232   H     0.68816   0.07900   0.15151   0.00000  Uiso   1.00
H233   H     0.97940   0.07453   0.09816   0.00000  Uiso   1.00
O234   O     0.82456   0.03300   0.25086   0.00000  Uiso   1.00
C235   C     0.87432   0.02517   0.27004   0.00000  Uiso   1.00
H236   H     0.89881   0.05070   0.25986   0.00000  Uiso   1.00
H237   H     0.88866   0.32963   0.25765   0.00000  Uiso   1.00
C238   C     0.87841   0.02120   0.32302   0.00000  Uiso   1.00
H239   H     0.85123   0.33064   0.33285   0.00000  Uiso   1.00
H240   H     0.91627   0.01107   0.00353   0.00000  Uiso   1.00
C241   C     0.86890   0.06154   0.01148   0.00000  Uiso   1.00
H242   H     0.88611   0.08767   0.32743   0.00000  Uiso   1.00
H243   H     0.88365   0.06224   0.04893   0.00000  Uiso   1.00
H244   H     0.82826   0.06517   0.00783   0.00000  Uiso   1.00
C245   C     0.76540   0.11674   0.04273   0.00000  Uiso   1.00
N246   N     0.73608   0.09769   0.06043   0.00000  Uiso   1.00
C247   C     0.89734   0.22114   0.29040   0.00000  Uiso   1.00
N248   N     0.92447   0.24357   0.27393   0.00000  Uiso   1.00
C249   C     0.77476   0.10997   0.27801   0.00000  Uiso   1.00
N250   N     0.75391   0.08455   0.25554   0.00000  Uiso   1.00
C251   C     0.89031   0.22549   0.05349   0.00000  Uiso   1.00
N252   N     0.91298   0.25153   0.07336   0.00000  Uiso   1.00
C253   C     0.16620   0.42050   0.16704   0.00000  Uiso   1.00
C254   C     0.16581   0.57899   0.16639   0.00000  Uiso   1.00
C255   C     0.06805   0.50127   0.15471   0.00000  Uiso   1.00
C256   C     0.26494   0.49950   0.17828   0.00000  Uiso   1.00
C257   C     0.01286   0.50605   0.14872   0.00000  Uiso   1.00
C258   C     0.31912   0.49289   0.18338   0.00000  Uiso   1.00
C259   C     0.17593   0.35339   0.12902   0.00000  Uiso   1.00
C260   C     0.13989   0.64344   0.19990   0.00000  Uiso   1.00
C261   C     0.19250   0.64698   0.13879   0.00000  Uiso   1.00
C262   C     0.15099   0.35185   0.20605   0.00000  Uiso   1.00
C263   C     0.16301   0.62331   0.16614   0.00000  Uiso   1.00
C264   C     0.16513   0.37522   0.16779   0.00000  Uiso   1.00
C265   C     0.13486   0.47469   0.02153   0.00000  Uiso   1.00
C266   C     0.19705   0.52663   0.31148   0.00000  Uiso   1.00
C267   C     0.13574   0.47410   0.30548   0.00000  Uiso   1.00
C268   C     0.19607   0.52714   0.02738   0.00000  Uiso   1.00
Cu269  Cu    0.16667   0.50001   0.21355   0.00000  Uiso   1.00
Cu270  Cu    0.16667   0.49999   0.11978   0.00000  Uiso   1.00
N271   N     0.16668   0.50001   0.28403   0.00000  Uiso   1.00
N272   N     0.16665   0.49999   0.04931   0.00000  Uiso   1.00
O273   O     0.16666   0.43989   0.20625   0.00000  Uiso   1.00
O274   O     0.16667   0.56011   0.12709   0.00000  Uiso   1.00
O275   O     0.16666   0.43988   0.12706   0.00000  Uiso   1.00
O276   O     0.16667   0.56012   0.20628   0.00000  Uiso   1.00
O277   O     0.09161   0.50000   0.19712   0.00000  Uiso   1.00
O278   O     0.24172   0.50000   0.13621   0.00000  Uiso   1.00
O279   O     0.09161   0.49999   0.11793   0.00000  Uiso   1.00
O280   O     0.24172   0.50001   0.21540   0.00000  Uiso   1.00
O281   O     0.32144   0.53000   0.11277   0.00000  Uiso   1.00
C282   C     0.00791   0.53110   0.06981   0.00000  Uiso   1.00
H283   H     0.30967   0.53230   0.04146   0.00000  Uiso   1.00
H284   H     0.02553   0.50266   0.06184   0.00000  Uiso   1.00
C285   C     0.04013   0.57020   0.06594   0.00000  Uiso   1.00
H286   H     0.01700   0.59707   0.06912   0.00000  Uiso   1.00
H287   H     0.07150   0.57170   0.09463   0.00000  Uiso   1.00
C288   C     0.06070   0.57321   0.01940   0.00000  Uiso   1.00
H289   H     0.08343   0.54654   0.01469   0.00000  Uiso   1.00
H290   H     0.08474   0.60133   0.01843   0.00000  Uiso   1.00
H291   H     0.02949   0.57455   0.32377   0.00000  Uiso   1.00
O292   O     0.00928   0.47549   0.22431   0.00000  Uiso   1.00
C293   C     0.31677   0.43992   0.23894   0.00000  Uiso   1.00
H294   H     0.00104   0.41283   0.22717   0.00000  Uiso   1.00
H295   H     0.27724   0.43544   0.22361   0.00000  Uiso   1.00
C296   C     0.31943   0.43967   0.29222   0.00000  Uiso   1.00
H297   H     0.01623   0.46107   0.30770   0.00000  Uiso   1.00
H298   H     0.28420   0.45150   0.30160   0.00000  Uiso   1.00
C299   C     0.32873   0.39713   0.31375   0.00000  Uiso   1.00
H300   H     0.30968   0.37274   0.29155   0.00000  Uiso   1.00
H301   H     0.31589   0.39534   0.01533   0.00000  Uiso   1.00
H302   H     0.03569   0.39069   0.31799   0.00000  Uiso   1.00
C303   C     0.13900   0.35452   0.08845   0.00000  Uiso   1.00
N304   N     0.10879   0.35343   0.05624   0.00000  Uiso   1.00
C305   C     0.11071   0.62196   0.23170   0.00000  Uiso   1.00
N306   N     0.08706   0.60465   0.25685   0.00000  Uiso   1.00
O307   O     0.24270   0.63682   0.14292   0.00000  Uiso   1.00
C308   C     0.27331   0.66372   0.11920   0.00000  Uiso   1.00
H309   H     0.25332   0.34339   0.08684   0.00000  Uiso   1.00
H310   H     0.30349   0.64559   0.10803   0.00000  Uiso   1.00
C311   C     0.29832   0.36335   0.15174   0.00000  Uiso   1.00
H312   H     0.26970   0.38255   0.16378   0.00000  Uiso   1.00
H313   H     0.31956   0.34858   0.18268   0.00000  Uiso   1.00
C314   C     0.00071   0.39039   0.12690   0.00000  Uiso   1.00
H315   H     0.02837   0.37149   0.11266   0.00000  Uiso   1.00
H316   H     0.02149   0.41233   0.15151   0.00000  Uiso   1.00
H317   H     0.31273   0.40787   0.09816   0.00000  Uiso   1.00
O318   O     0.15790   0.36634   0.25086   0.00000  Uiso   1.00
C319   C     0.20765   0.35850   0.27004   0.00000  Uiso   1.00
H320   H     0.23214   0.38403   0.25986   0.00000  Uiso   1.00
H321   H     0.22199   0.66296   0.25765   0.00000  Uiso   1.00
C322   C     0.21175   0.35454   0.32302   0.00000  Uiso   1.00
H323   H     0.18456   0.66397   0.33285   0.00000  Uiso   1.00
H324   H     0.24961   0.34440   0.00353   0.00000  Uiso   1.00
C325   C     0.20224   0.39487   0.01148   0.00000  Uiso   1.00
H326   H     0.21945   0.42100   0.32743   0.00000  Uiso   1.00
H327   H     0.21699   0.39558   0.04893   0.00000  Uiso   1.00
H328   H     0.16160   0.39850   0.00783   0.00000  Uiso   1.00
C329   C     0.09873   0.45007   0.04273   0.00000  Uiso   1.00
N330   N     0.06941   0.43102   0.06043   0.00000  Uiso   1.00
C331   C     0.23067   0.55448   0.29040   0.00000  Uiso   1.00
N332   N     0.25781   0.57690   0.27393   0.00000  Uiso   1.00
C333   C     0.10809   0.44331   0.27801   0.00000  Uiso   1.00
N334   N     0.08724   0.41788   0.25554   0.00000  Uiso   1.00
C335   C     0.22364   0.55883   0.05349   0.00000  Uiso   1.00
N336   N     0.24631   0.58487   0.07336   0.00000  Uiso   1.00
C337   C     0.49954   0.42050   0.16704   0.00000  Uiso   1.00
C338   C     0.49915   0.57899   0.16639   0.00000  Uiso   1.00
C339   C     0.40139   0.50127   0.15471   0.00000  Uiso   1.00
C340   C     0.59827   0.49950   0.17828   0.00000  Uiso   1.00
C341   C     0.34619   0.50605   0.14872   0.00000  Uiso   1.00
C342   C     0.65246   0.49289   0.18338   0.00000  Uiso   1.00
C343   C     0.50926   0.35339   0.12902   0.00000  Uiso   1.00
C344   C     0.47323   0.64344   0.19990   0.00000  Uiso   1.00
C345   C     0.52583   0.64698   0.13879   0.00000  Uiso   1.00
C346   C     0.48432   0.35185   0.20605   0.00000  Uiso   1.00
C347   C     0.49634   0.62331   0.16614   0.00000  Uiso   1.00
C348   C     0.49846   0.37522   0.16779   0.00000  Uiso   1.00
C349   C     0.46819   0.47469   0.02153   0.00000  Uiso   1.00
C350   C     0.53038   0.52663   0.31148   0.00000  Uiso   1.00
C351   C     0.46907   0.47410   0.30548   0.00000  Uiso   1.00
C352   C     0.52941   0.52714   0.02738   0.00000  Uiso   1.00
Cu353  Cu    0.50000   0.50001   0.21355   0.00000  Uiso   1.00
Cu354  Cu    0.50000   0.49999   0.11978   0.00000  Uiso   1.00
N355   N     0.50001   0.50001   0.28403   0.00000  Uiso   1.00
N356   N     0.49999   0.49999   0.04931   0.00000  Uiso   1.00
O357   O     0.50000   0.43989   0.20625   0.00000  Uiso   1.00
O358   O     0.50000   0.56011   0.12709   0.00000  Uiso   1.00
O359   O     0.50000   0.43988   0.12706   0.00000  Uiso   1.00
O360   O     0.50000   0.56012   0.20628   0.00000  Uiso   1.00
O361   O     0.42495   0.50000   0.19712   0.00000  Uiso   1.00
O362   O     0.57505   0.50000   0.13621   0.00000  Uiso   1.00
O363   O     0.42494   0.49999   0.11793   0.00000  Uiso   1.00
O364   O     0.57506   0.50001   0.21540   0.00000  Uiso   1.00
O365   O     0.65477   0.53000   0.11277   0.00000  Uiso   1.00
C366   C     0.34125   0.53110   0.06981   0.00000  Uiso   1.00
H367   H     0.64300   0.53230   0.04146   0.00000  Uiso   1.00
H368   H     0.35886   0.50266   0.06184   0.00000  Uiso   1.00
C369   C     0.37346   0.57020   0.06594   0.00000  Uiso   1.00
H370   H     0.35033   0.59707   0.06912   0.00000  Uiso   1.00
H371   H     0.40483   0.57170   0.09463   0.00000  Uiso   1.00
C372   C     0.39403   0.57321   0.01940   0.00000  Uiso   1.00
H373   H     0.41677   0.54654   0.01469   0.00000  Uiso   1.00
H374   H     0.41807   0.60133   0.01843   0.00000  Uiso   1.00
H375   H     0.36282   0.57455   0.32377   0.00000  Uiso   1.00
O376   O     0.34261   0.47549   0.22431   0.00000  Uiso   1.00
C377   C     0.65010   0.43992   0.23894   0.00000  Uiso   1.00
H378   H     0.33438   0.41283   0.22717   0.00000  Uiso   1.00
H379   H     0.61058   0.43544   0.22361   0.00000  Uiso   1.00
C380   C     0.65276   0.43967   0.29222   0.00000  Uiso   1.00
H381   H     0.34957   0.46107   0.30770   0.00000  Uiso   1.00
H382   H     0.61753   0.45150   0.30160   0.00000  Uiso   1.00
C383   C     0.66206   0.39713   0.31375   0.00000  Uiso   1.00
H384   H     0.64301   0.37274   0.29155   0.00000  Uiso   1.00
H385   H     0.64922   0.39534   0.01533   0.00000  Uiso   1.00
H386   H     0.36902   0.39069   0.31799   0.00000  Uiso   1.00
C387   C     0.47233   0.35452   0.08845   0.00000  Uiso   1.00
N388   N     0.44213   0.35343   0.05624   0.00000  Uiso   1.00
C389   C     0.44404   0.62196   0.23170   0.00000  Uiso   1.00
N390   N     0.42039   0.60465   0.25685   0.00000  Uiso   1.00
O391   O     0.57603   0.63682   0.14292   0.00000  Uiso   1.00
C392   C     0.60665   0.66372   0.11920   0.00000  Uiso   1.00
H393   H     0.58665   0.34339   0.08684   0.00000  Uiso   1.00
H394   H     0.63683   0.64559   0.10803   0.00000  Uiso   1.00
C395   C     0.63166   0.36335   0.15174   0.00000  Uiso   1.00
H396   H     0.60303   0.38255   0.16378   0.00000  Uiso   1.00
H397   H     0.65290   0.34858   0.18268   0.00000  Uiso   1.00
C398   C     0.33405   0.39039   0.12690   0.00000  Uiso   1.00
H399   H     0.36171   0.37149   0.11266   0.00000  Uiso   1.00
H400   H     0.35483   0.41233   0.15151   0.00000  Uiso   1.00
H401   H     0.64607   0.40787   0.09816   0.00000  Uiso   1.00
O402   O     0.49123   0.36634   0.25086   0.00000  Uiso   1.00
C403   C     0.54099   0.35850   0.27004   0.00000  Uiso   1.00
H404   H     0.56547   0.38403   0.25986   0.00000  Uiso   1.00
H405   H     0.55533   0.66296   0.25765   0.00000  Uiso   1.00
C406   C     0.54508   0.35454   0.32302   0.00000  Uiso   1.00
H407   H     0.51789   0.66397   0.33285   0.00000  Uiso   1.00
H408   H     0.58294   0.34440   0.00353   0.00000  Uiso   1.00
C409   C     0.53557   0.39487   0.01148   0.00000  Uiso   1.00
H410   H     0.55278   0.42100   0.32743   0.00000  Uiso   1.00
H411   H     0.55032   0.39558   0.04893   0.00000  Uiso   1.00
H412   H     0.49493   0.39850   0.00783   0.00000  Uiso   1.00
C413   C     0.43207   0.45007   0.04273   0.00000  Uiso   1.00
N414   N     0.40275   0.43102   0.06043   0.00000  Uiso   1.00
C415   C     0.56401   0.55448   0.29040   0.00000  Uiso   1.00
N416   N     0.59114   0.57690   0.27393   0.00000  Uiso   1.00
C417   C     0.44142   0.44331   0.27801   0.00000  Uiso   1.00
N418   N     0.42057   0.41788   0.25554   0.00000  Uiso   1.00
C419   C     0.55697   0.55883   0.05349   0.00000  Uiso   1.00
N420   N     0.57965   0.58487   0.07336   0.00000  Uiso   1.00
C421   C     0.83287   0.42050   0.16704   0.00000  Uiso   1.00
C422   C     0.83248   0.57899   0.16639   0.00000  Uiso   1.00
C423   C     0.73472   0.50127   0.15471   0.00000  Uiso   1.00
C424   C     0.93160   0.49950   0.17828   0.00000  Uiso   1.00
C425   C     0.67952   0.50605   0.14872   0.00000  Uiso   1.00
C426   C     0.98579   0.49289   0.18338   0.00000  Uiso   1.00
C427   C     0.84260   0.35339   0.12902   0.00000  Uiso   1.00
C428   C     0.80656   0.64344   0.19990   0.00000  Uiso   1.00
C429   C     0.85917   0.64698   0.13879   0.00000  Uiso   1.00
C430   C     0.81765   0.35185   0.20605   0.00000  Uiso   1.00
C431   C     0.82967   0.62331   0.16614   0.00000  Uiso   1.00
C432   C     0.83179   0.37522   0.16779   0.00000  Uiso   1.00
C433   C     0.80153   0.47469   0.02153   0.00000  Uiso   1.00
C434   C     0.86372   0.52663   0.31148   0.00000  Uiso   1.00
C435   C     0.80240   0.47410   0.30548   0.00000  Uiso   1.00
C436   C     0.86274   0.52714   0.02738   0.00000  Uiso   1.00
Cu437  Cu    0.83333   0.50001   0.21355   0.00000  Uiso   1.00
Cu438  Cu    0.83333   0.49999   0.11978   0.00000  Uiso   1.00
N439   N     0.83335   0.50001   0.28403   0.00000  Uiso   1.00
N440   N     0.83332   0.49999   0.04931   0.00000  Uiso   1.00
O441   O     0.83333   0.43989   0.20625   0.00000  Uiso   1.00
O442   O     0.83334   0.56011   0.12709   0.00000  Uiso   1.00
O443   O     0.83333   0.43988   0.12706   0.00000  Uiso   1.00
O444   O     0.83334   0.56012   0.20628   0.00000  Uiso   1.00
O445   O     0.75828   0.50000   0.19712   0.00000  Uiso   1.00
O446   O     0.90839   0.50000   0.13621   0.00000  Uiso   1.00
O447   O     0.75828   0.49999   0.11793   0.00000  Uiso   1.00
O448   O     0.90839   0.50001   0.21540   0.00000  Uiso   1.00
O449   O     0.98811   0.53000   0.11277   0.00000  Uiso   1.00
C450   C     0.67458   0.53110   0.06981   0.00000  Uiso   1.00
H451   H     0.97633   0.53230   0.04146   0.00000  Uiso   1.00
H452   H     0.69220   0.50266   0.06184   0.00000  Uiso   1.00
C453   C     0.70679   0.57020   0.06594   0.00000  Uiso   1.00
H454   H     0.68367   0.59707   0.06912   0.00000  Uiso   1.00
H455   H     0.73817   0.57170   0.09463   0.00000  Uiso   1.00
C456   C     0.72736   0.57321   0.01940   0.00000  Uiso   1.00
H457   H     0.75010   0.54654   0.01469   0.00000  Uiso   1.00
H458   H     0.75141   0.60133   0.01843   0.00000  Uiso   1.00
H459   H     0.69616   0.57455   0.32377   0.00000  Uiso   1.00
O460   O     0.67595   0.47549   0.22431   0.00000  Uiso   1.00
C461   C     0.98344   0.43992   0.23894   0.00000  Uiso   1.00
H462   H     0.66771   0.41283   0.22717   0.00000  Uiso   1.00
H463   H     0.94391   0.43544   0.22361   0.00000  Uiso   1.00
C464   C     0.98609   0.43967   0.29222   0.00000  Uiso   1.00
H465   H     0.68290   0.46107   0.30770   0.00000  Uiso   1.00
H466   H     0.95086   0.45150   0.30160   0.00000  Uiso   1.00
C467   C     0.99539   0.39713   0.31375   0.00000  Uiso   1.00
H468   H     0.97634   0.37274   0.29155   0.00000  Uiso   1.00
H469   H     0.98256   0.39534   0.01533   0.00000  Uiso   1.00
H470   H     0.70235   0.39069   0.31799   0.00000  Uiso   1.00
C471   C     0.80567   0.35452   0.08845   0.00000  Uiso   1.00
N472   N     0.77546   0.35343   0.05624   0.00000  Uiso   1.00
C473   C     0.77738   0.62196   0.23170   0.00000  Uiso   1.00
N474   N     0.75372   0.60465   0.25685   0.00000  Uiso   1.00
O475   O     0.90936   0.63682   0.14292   0.00000  Uiso   1.00
C476   C     0.93998   0.66372   0.11920   0.00000  Uiso   1.00
H477   H     0.91999   0.34339   0.08684   0.00000  Uiso   1.00
H478   H     0.97016   0.64559   0.10803   0.00000  Uiso   1.00
C479   C     0.96499   0.36335   0.15174   0.00000  Uiso   1.00
H480   H     0.93636   0.38255   0.16378   0.00000  Uiso   1.00
H481   H     0.98623   0.34858   0.18268   0.00000  Uiso   1.00
C482   C     0.66738   0.39039   0.12690   0.00000  Uiso   1.00
H483   H     0.69504   0.37149   0.11266   0.00000  Uiso   1.00
H484   H     0.68816   0.41233   0.15151   0.00000  Uiso   1.00
H485   H     0.97940   0.40787   0.09816   0.00000  Uiso   1.00
O486   O     0.82456   0.36634   0.25086   0.00000  Uiso   1.00
C487   C     0.87432   0.35850   0.27004   0.00000  Uiso   1.00
H488   H     0.89881   0.38403   0.25986   0.00000  Uiso   1.00
H489   H     0.88866   0.66296   0.25765   0.00000  Uiso   1.00
C490   C     0.87841   0.35454   0.32302   0.00000  Uiso   1.00
H491   H     0.85123   0.66397   0.33285   0.00000  Uiso   1.00
H492   H     0.91627   0.34440   0.00353   0.00000  Uiso   1.00
C493   C     0.86890   0.39487   0.01148   0.00000  Uiso   1.00
H494   H     0.88611   0.42100   0.32743   0.00000  Uiso   1.00
H495   H     0.88365   0.39558   0.04893   0.00000  Uiso   1.00
H496   H     0.82826   0.39850   0.00783   0.00000  Uiso   1.00
C497   C     0.76540   0.45007   0.04273   0.00000  Uiso   1.00
N498   N     0.73608   0.43102   0.06043   0.00000  Uiso   1.00
C499   C     0.89734   0.55448   0.29040   0.00000  Uiso   1.00
N500   N     0.92447   0.57690   0.27393   0.00000  Uiso   1.00
C501   C     0.77476   0.44331   0.27801   0.00000  Uiso   1.00
N502   N     0.75391   0.41788   0.25554   0.00000  Uiso   1.00
C503   C     0.89031   0.55883   0.05349   0.00000  Uiso   1.00
N504   N     0.91298   0.58487   0.07336   0.00000  Uiso   1.00
C505   C     0.16620   0.75383   0.16704   0.00000  Uiso   1.00
C506   C     0.16581   0.91233   0.16639   0.00000  Uiso   1.00
C507   C     0.06805   0.83460   0.15471   0.00000  Uiso   1.00
C508   C     0.26494   0.83283   0.17828   0.00000  Uiso   1.00
C509   C     0.01286   0.83938   0.14872   0.00000  Uiso   1.00
C510   C     0.31912   0.82622   0.18338   0.00000  Uiso   1.00
C511   C     0.17593   0.68673   0.12902   0.00000  Uiso   1.00
C512   C     0.13989   0.97678   0.19990   0.00000  Uiso   1.00
C513   C     0.19250   0.98031   0.13879   0.00000  Uiso   1.00
C514   C     0.15099   0.68518   0.20605   0.00000  Uiso   1.00
C515   C     0.16301   0.95664   0.16614   0.00000  Uiso   1.00
C516   C     0.16513   0.70856   0.16779   0.00000  Uiso   1.00
C517   C     0.13486   0.80802   0.02153   0.00000  Uiso   1.00
C518   C     0.19705   0.85996   0.31148   0.00000  Uiso   1.00
C519   C     0.13574   0.80743   0.30548   0.00000  Uiso   1.00
C520   C     0.19607   0.86047   0.02738   0.00000  Uiso   1.00
Cu521  Cu    0.16667   0.83334   0.21355   0.00000  Uiso   1.00
Cu522  Cu    0.16667   0.83333   0.11978   0.00000  Uiso   1.00
N523   N     0.16668   0.83334   0.28403   0.00000  Uiso   1.00
N524   N     0.16665   0.83332   0.04931   0.00000  Uiso   1.00
O525   O     0.16666   0.77322   0.20625   0.00000  Uiso   1.00
O526   O     0.16667   0.89345   0.12709   0.00000  Uiso   1.00
O527   O     0.16666   0.77321   0.12706   0.00000  Uiso   1.00
O528   O     0.16667   0.89346   0.20628   0.00000  Uiso   1.00
O529   O     0.09161   0.83334   0.19712   0.00000  Uiso   1.00
O530   O     0.24172   0.83333   0.13621   0.00000  Uiso   1.00
O531   O     0.09161   0.83333   0.11793   0.00000  Uiso   1.00
O532   O     0.24172   0.83334   0.21540   0.00000  Uiso   1.00
O533   O     0.32144   0.86334   0.11277   0.00000  Uiso   1.00
C534   C     0.00791   0.86444   0.06981   0.00000  Uiso   1.00
H535   H     0.30967   0.86564   0.04146   0.00000  Uiso   1.00
H536   H     0.02553   0.83599   0.06184   0.00000  Uiso   1.00
C537   C     0.04013   0.90354   0.06594   0.00000  Uiso   1.00
H538   H     0.01700   0.93040   0.06912   0.00000  Uiso   1.00
H539   H     0.07150   0.90504   0.09463   0.00000  Uiso   1.00
C540   C     0.06070   0.90655   0.01940   0.00000  Uiso   1.00
H541   H     0.08343   0.87988   0.01469   0.00000  Uiso   1.00
H542   H     0.08474   0.93467   0.01843   0.00000  Uiso   1.00
H543   H     0.02949   0.90789   0.32377   0.00000  Uiso   1.00
O544   O     0.00928   0.80882   0.22431   0.00000  Uiso   1.00
C545   C     0.31677   0.77326   0.23894   0.00000  Uiso   1.00
H546   H     0.00104   0.74616   0.22717   0.00000  Uiso   1.00
H547   H     0.27724   0.76878   0.22361   0.00000  Uiso   1.00
C548   C     0.31943   0.77301   0.29222   0.00000  Uiso   1.00
H549   H     0.01623   0.79440   0.30770   0.00000  Uiso   1.00
H550   H     0.28420   0.78483   0.30160   0.00000  Uiso   1.00
C551   C     0.32873   0.73046   0.31375   0.00000  Uiso   1.00
H552   H     0.30968   0.70608   0.29155   0.00000  Uiso   1.00
H553   H     0.31589   0.72868   0.01533   0.00000  Uiso   1.00
H554   H     0.03569   0.72402   0.31799   0.00000  Uiso   1.00
C555   C     0.13900   0.68786   0.08845   0.00000  Uiso   1.00
N556   N     0.10879   0.68677   0.05624   0.00000  Uiso   1.00
C557   C     0.11071   0.95529   0.23170   0.00000  Uiso   1.00
N558   N     0.08706   0.93798   0.25685   0.00000  Uiso   1.00
O559   O     0.24270   0.97015   0.14292   0.00000  Uiso   1.00
C560   C     0.27331   0.99705   0.11920   0.00000  Uiso   1.00
H561   H     0.25332   0.67673   0.08684   0.00000  Uiso   1.00
H562   H     0.30349   0.97893   0.10803   0.00000  Uiso   1.00
C563   C     0.29832   0.69668   0.15174   0.00000  Uiso   1.00
H564   H     0.26970   0.71588   0.16378   0.00000  Uiso   1.00
H565   H     0.31956   0.68191   0.18268   0.00000  Uiso   1.00
C566   C     0.00071   0.72373   0.12690   0.00000  Uiso   1.00
H567   H     0.02837   0.70482   0.11266   0.00000  Uiso   1.00
H568   H     0.02149   0.74566   0.15151   0.00000  Uiso   1.00
H569   H     0.31273   0.74120   0.09816   0.00000  Uiso   1.00
O570   O     0.15790   0.69967   0.25086   0.00000  Uiso   1.00
C571   C     0.20765   0.69184   0.27004   0.00000  Uiso   1.00
H572   H     0.23214   0.71736   0.25986   0.00000  Uiso   1.00
H573   H     0.22199   0.99630   0.25765   0.00000  Uiso   1.00
C574   C     0.21175   0.68787   0.32302   0.00000  Uiso   1.00
H575   H     0.18456   0.99731   0.33285   0.00000  Uiso   1.00
H576   H     0.24961   0.67773   0.00353   0.00000  Uiso   1.00
C577   C     0.20224   0.72820   0.01148   0.00000  Uiso   1.00
H578   H     0.21945   0.75433   0.32743   0.00000  Uiso   1.00
H579   H     0.21699   0.72891   0.04893   0.00000  Uiso   1.00
H580   H     0.16160   0.73183   0.00783   0.00000  Uiso   1.00
C581   C     0.09873   0.78341   0.04273   0.00000  Uiso   1.00
N582   N     0.06941   0.76436   0.06043   0.00000  Uiso   1.00
C583   C     0.23067   0.88781   0.29040   0.00000  Uiso   1.00
N584   N     0.25781   0.91024   0.27393   0.00000  Uiso   1.00
C585   C     0.10809   0.77664   0.27801   0.00000  Uiso   1.00
N586   N     0.08724   0.75121   0.25554   0.00000  Uiso   1.00
C587   C     0.22364   0.89216   0.05349   0.00000  Uiso   1.00
N588   N     0.24631   0.91820   0.07336   0.00000  Uiso   1.00
C589   C     0.49954   0.75383   0.16704   0.00000  Uiso   1.00
C590   C     0.49915   0.91233   0.16639   0.00000  Uiso   1.00
C591   C     0.40139   0.83460   0.15471   0.00000  Uiso   1.00
C592   C     0.59827   0.83283   0.17828   0.00000  Uiso   1.00
C593   C     0.34619   0.83938   0.14872   0.00000  Uiso   1.00
C594   C     0.65246   0.82622   0.18338   0.00000  Uiso   1.00
C595   C     0.50926   0.68673   0.12902   0.00000  Uiso   1.00
C596   C     0.47323   0.97678   0.19990   0.00000  Uiso   1.00
C597   C     0.52583   0.98031   0.13879   0.00000  Uiso   1.00
C598   C     0.48432   0.68518   0.20605   0.00000  Uiso   1.00
C599   C     0.49634   0.95664   0.16614   0.00000  Uiso   1.00
C600   C     0.49846   0.70856   0.16779   0.00000  Uiso   1.00
C601   C     0.46819   0.80802   0.02153   0.00000  Uiso   1.00
C602   C     0.53038   0.85996   0.31148   0.00000  Uiso   1.00
C603   C     0.46907   0.80743   0.30548   0.00000  Uiso   1.00
C604   C     0.52941   0.86047   0.02738   0.00000  Uiso   1.00
Cu605  Cu    0.50000   0.83334   0.21355   0.00000  Uiso   1.00
Cu606  Cu    0.50000   0.83333   0.11978   0.00000  Uiso   1.00
N607   N     0.50001   0.83334   0.28403   0.00000  Uiso   1.00
N608   N     0.49999   0.83332   0.04931   0.00000  Uiso   1.00
O609   O     0.50000   0.77322   0.20625   0.00000  Uiso   1.00
O610   O     0.50000   0.89345   0.12709   0.00000  Uiso   1.00
O611   O     0.50000   0.77321   0.12706   0.00000  Uiso   1.00
O612   O     0.50000   0.89346   0.20628   0.00000  Uiso   1.00
O613   O     0.42495   0.83334   0.19712   0.00000  Uiso   1.00
O614   O     0.57505   0.83333   0.13621   0.00000  Uiso   1.00
O615   O     0.42494   0.83333   0.11793   0.00000  Uiso   1.00
O616   O     0.57506   0.83334   0.21540   0.00000  Uiso   1.00
O617   O     0.65477   0.86334   0.11277   0.00000  Uiso   1.00
C618   C     0.34125   0.86444   0.06981   0.00000  Uiso   1.00
H619   H     0.64300   0.86564   0.04146   0.00000  Uiso   1.00
H620   H     0.35886   0.83599   0.06184   0.00000  Uiso   1.00
C621   C     0.37346   0.90354   0.06594   0.00000  Uiso   1.00
H622   H     0.35033   0.93040   0.06912   0.00000  Uiso   1.00
H623   H     0.40483   0.90504   0.09463   0.00000  Uiso   1.00
C624   C     0.39403   0.90655   0.01940   0.00000  Uiso   1.00
H625   H     0.41677   0.87988   0.01469   0.00000  Uiso   1.00
H626   H     0.41807   0.93467   0.01843   0.00000  Uiso   1.00
H627   H     0.36282   0.90789   0.32377   0.00000  Uiso   1.00
O628   O     0.34261   0.80882   0.22431   0.00000  Uiso   1.00
C629   C     0.65010   0.77326   0.23894   0.00000  Uiso   1.00
H630   H     0.33438   0.74616   0.22717   0.00000  Uiso   1.00
H631   H     0.61058   0.76878   0.22361   0.00000  Uiso   1.00
C632   C     0.65276   0.77301   0.29222   0.00000  Uiso   1.00
H633   H     0.34957   0.79440   0.30770   0.00000  Uiso   1.00
H634   H     0.61753   0.78483   0.30160   0.00000  Uiso   1.00
C635   C     0.66206   0.73046   0.31375   0.00000  Uiso   1.00
H636   H     0.64301   0.70608   0.29155   0.00000  Uiso   1.00
H637   H     0.64922   0.72868   0.01533   0.00000  Uiso   1.00
H638   H     0.36902   0.72402   0.31799   0.00000  Uiso   1.00
C639   C     0.47233   0.68786   0.08845   0.00000  Uiso   1.00
N640   N     0.44213   0.68677   0.05624   0.00000  Uiso   1.00
C641   C     0.44404   0.95529   0.23170   0.00000  Uiso   1.00
N642   N     0.42039   0.93798   0.25685   0.00000  Uiso   1.00
O643   O     0.57603   0.97015   0.14292   0.00000  Uiso   1.00
C644   C     0.60665   0.99705   0.11920   0.00000  Uiso   1.00
H645   H     0.58665   0.67673   0.08684   0.00000  Uiso   1.00
H646   H     0.63683   0.97893   0.10803   0.00000  Uiso   1.00
C647   C     0.63166   0.69668   0.15174   0.00000  Uiso   1.00
H648   H     0.60303   0.71588   0.16378   0.00000  Uiso   1.00
H649   H     0.65290   0.68191   0.18268   0.00000  Uiso   1.00
C650   C     0.33405   0.72373   0.12690   0.00000  Uiso   1.00
H651   H     0.36171   0.70482   0.11266   0.00000  Uiso   1.00
H652   H     0.35483   0.74566   0.15151   0.00000  Uiso   1.00
H653   H     0.64607   0.74120   0.09816   0.00000  Uiso   1.00
O654   O     0.49123   0.69967   0.25086   0.00000  Uiso   1.00
C655   C     0.54099   0.69184   0.27004   0.00000  Uiso   1.00
H656   H     0.56547   0.71736   0.25986   0.00000  Uiso   1.00
H657   H     0.55533   0.99630   0.25765   0.00000  Uiso   1.00
C658   C     0.54508   0.68787   0.32302   0.00000  Uiso   1.00
H659   H     0.51789   0.99731   0.33285   0.00000  Uiso   1.00
H660   H     0.58294   0.67773   0.00353   0.00000  Uiso   1.00
C661   C     0.53557   0.72820   0.01148   0.00000  Uiso   1.00
H662   H     0.55278   0.75433   0.32743   0.00000  Uiso   1.00
H663   H     0.55032   0.72891   0.04893   0.00000  Uiso   1.00
H664   H     0.49493   0.73183   0.00783   0.00000  Uiso   1.00
C665   C     0.43207   0.78341   0.04273   0.00000  Uiso   1.00
N666   N     0.40275   0.76436   0.06043   0.00000  Uiso   1.00
C667   C     0.56401   0.88781   0.29040   0.00000  Uiso   1.00
N668   N     0.59114   0.91024   0.27393   0.00000  Uiso   1.00
C669   C     0.44142   0.77664   0.27801   0.00000  Uiso   1.00
N670   N     0.42057   0.75121   0.25554   0.00000  Uiso   1.00
C671   C     0.55697   0.89216   0.05349   0.00000  Uiso   1.00
N672   N     0.57965   0.91820   0.07336   0.00000  Uiso   1.00
C673   C     0.83287   0.75383   0.16704   0.00000  Uiso   1.00
C674   C     0.83248   0.91233   0.16639   0.00000  Uiso   1.00
C675   C     0.73472   0.83460   0.15471   0.00000  Uiso   1.00
C676   C     0.93160   0.83283   0.17828   0.00000  Uiso   1.00
C677   C     0.67952   0.83938   0.14872   0.00000  Uiso   1.00
C678   C     0.98579   0.82622   0.18338   0.00000  Uiso   1.00
C679   C     0.84260   0.68673   0.12902   0.00000  Uiso   1.00
C680   C     0.80656   0.97678   0.19990   0.00000  Uiso   1.00
C681   C     0.85917   0.98031   0.13879   0.00000  Uiso   1.00
C682   C     0.81765   0.68518   0.20605   0.00000  Uiso   1.00
C683   C     0.82967   0.95664   0.16614   0.00000  Uiso   1.00
C684   C     0.83179   0.70856   0.16779   0.00000  Uiso   1.00
C685   C     0.80153   0.80802   0.02153   0.00000  Uiso   1.00
C686   C     0.86372   0.85996   0.31148   0.00000  Uiso   1.00
C687   C     0.80240   0.80743   0.30548   0.00000  Uiso   1.00
C688   C     0.86274   0.86047   0.02738   0.00000  Uiso   1.00
Cu689  Cu    0.83333   0.83334   0.21355   0.00000  Uiso   1.00
Cu690  Cu    0.83333   0.83333   0.11978   0.00000  Uiso   1.00
N691   N     0.83335   0.83334   0.28403   0.00000  Uiso   1.00
N692   N     0.83332   0.83332   0.04931   0.00000  Uiso   1.00
O693   O     0.83333   0.77322   0.20625   0.00000  Uiso   1.00
O694   O     0.83334   0.89345   0.12709   0.00000  Uiso   1.00
O695   O     0.83333   0.77321   0.12706   0.00000  Uiso   1.00
O696   O     0.83334   0.89346   0.20628   0.00000  Uiso   1.00
O697   O     0.75828   0.83334   0.19712   0.00000  Uiso   1.00
O698   O     0.90839   0.83333   0.13621   0.00000  Uiso   1.00
O699   O     0.75828   0.83333   0.11793   0.00000  Uiso   1.00
O700   O     0.90839   0.83334   0.21540   0.00000  Uiso   1.00
O701   O     0.98811   0.86334   0.11277   0.00000  Uiso   1.00
C702   C     0.67458   0.86444   0.06981   0.00000  Uiso   1.00
H703   H     0.97633   0.86564   0.04146   0.00000  Uiso   1.00
H704   H     0.69220   0.83599   0.06184   0.00000  Uiso   1.00
C705   C     0.70679   0.90354   0.06594   0.00000  Uiso   1.00
H706   H     0.68367   0.93040   0.06912   0.00000  Uiso   1.00
H707   H     0.73817   0.90504   0.09463   0.00000  Uiso   1.00
C708   C     0.72736   0.90655   0.01940   0.00000  Uiso   1.00
H709   H     0.75010   0.87988   0.01469   0.00000  Uiso   1.00
H710   H     0.75141   0.93467   0.01843   0.00000  Uiso   1.00
H711   H     0.69616   0.90789   0.32377   0.00000  Uiso   1.00
O712   O     0.67595   0.80882   0.22431   0.00000  Uiso   1.00
C713   C     0.98344   0.77326   0.23894   0.00000  Uiso   1.00
H714   H     0.66771   0.74616   0.22717   0.00000  Uiso   1.00
H715   H     0.94391   0.76878   0.22361   0.00000  Uiso   1.00
C716   C     0.98609   0.77301   0.29222   0.00000  Uiso   1.00
H717   H     0.68290   0.79440   0.30770   0.00000  Uiso   1.00
H718   H     0.95086   0.78483   0.30160   0.00000  Uiso   1.00
C719   C     0.99539   0.73046   0.31375   0.00000  Uiso   1.00
H720   H     0.97634   0.70608   0.29155   0.00000  Uiso   1.00
H721   H     0.98256   0.72868   0.01533   0.00000  Uiso   1.00
H722   H     0.70235   0.72402   0.31799   0.00000  Uiso   1.00
C723   C     0.80567   0.68786   0.08845   0.00000  Uiso   1.00
N724   N     0.77546   0.68677   0.05624   0.00000  Uiso   1.00
C725   C     0.77738   0.95529   0.23170   0.00000  Uiso   1.00
N726   N     0.75372   0.93798   0.25685   0.00000  Uiso   1.00
O727   O     0.90936   0.97015   0.14292   0.00000  Uiso   1.00
C728   C     0.93998   0.99705   0.11920   0.00000  Uiso   1.00
H729   H     0.91999   0.67673   0.08684   0.00000  Uiso   1.00
H730   H     0.97016   0.97893   0.10803   0.00000  Uiso   1.00
C731   C     0.96499   0.69668   0.15174   0.00000  Uiso   1.00
H732   H     0.93636   0.71588   0.16378   0.00000  Uiso   1.00
H733   H     0.98623   0.68191   0.18268   0.00000  Uiso   1.00
C734   C     0.66738   0.72373   0.12690   0.00000  Uiso   1.00
H735   H     0.69504   0.70482   0.11266   0.00000  Uiso   1.00
H736   H     0.68816   0.74566   0.15151   0.00000  Uiso   1.00
H737   H     0.97940   0.74120   0.09816   0.00000  Uiso   1.00
O738   O     0.82456   0.69967   0.25086   0.00000  Uiso   1.00
C739   C     0.87432   0.69184   0.27004   0.00000  Uiso   1.00
H740   H     0.89881   0.71736   0.25986   0.00000  Uiso   1.00
H741   H     0.88866   0.99630   0.25765   0.00000  Uiso   1.00
C742   C     0.87841   0.68787   0.32302   0.00000  Uiso   1.00
H743   H     0.85123   0.99731   0.33285   0.00000  Uiso   1.00
H744   H     0.91627   0.67773   0.00353   0.00000  Uiso   1.00
C745   C     0.86890   0.72820   0.01148   0.00000  Uiso   1.00
H746   H     0.88611   0.75433   0.32743   0.00000  Uiso   1.00
H747   H     0.88365   0.72891   0.04893   0.00000  Uiso   1.00
H748   H     0.82826   0.73183   0.00783   0.00000  Uiso   1.00
C749   C     0.76540   0.78341   0.04273   0.00000  Uiso   1.00
N750   N     0.73608   0.76436   0.06043   0.00000  Uiso   1.00
C751   C     0.89734   0.88781   0.29040   0.00000  Uiso   1.00
N752   N     0.92447   0.91024   0.27393   0.00000  Uiso   1.00
C753   C     0.77476   0.77664   0.27801   0.00000  Uiso   1.00
N754   N     0.75391   0.75121   0.25554   0.00000  Uiso   1.00
C755   C     0.89031   0.89216   0.05349   0.00000  Uiso   1.00
N756   N     0.91298   0.91820   0.07336   0.00000  Uiso   1.00
C757   C     0.16620   0.08716   0.50037   0.00000  Uiso   1.00
C758   C     0.16581   0.24566   0.49972   0.00000  Uiso   1.00
C759   C     0.06805   0.16794   0.48805   0.00000  Uiso   1.00
C760   C     0.26494   0.16616   0.51161   0.00000  Uiso   1.00
C761   C     0.01286   0.17272   0.48206   0.00000  Uiso   1.00
C762   C     0.31912   0.15955   0.51672   0.00000  Uiso   1.00
C763   C     0.17593   0.02006   0.46235   0.00000  Uiso   1.00
C764   C     0.13989   0.31011   0.53323   0.00000  Uiso   1.00
C765   C     0.19250   0.31364   0.47213   0.00000  Uiso   1.00
C766   C     0.15099   0.01852   0.53938   0.00000  Uiso   1.00
C767   C     0.16301   0.28998   0.49947   0.00000  Uiso   1.00
C768   C     0.16513   0.04189   0.50113   0.00000  Uiso   1.00
C769   C     0.13486   0.14135   0.35486   0.00000  Uiso   1.00
C770   C     0.19705   0.19329   0.64481   0.00000  Uiso   1.00
C771   C     0.13574   0.14077   0.63882   0.00000  Uiso   1.00
C772   C     0.19607   0.19380   0.36071   0.00000  Uiso   1.00
Cu773  Cu    0.16667   0.16667   0.54689   0.00000  Uiso   1.00
Cu774  Cu    0.16667   0.16666   0.45311   0.00000  Uiso   1.00
N775   N     0.16668   0.16668   0.61736   0.00000  Uiso   1.00
N776   N     0.16665   0.16666   0.38264   0.00000  Uiso   1.00
O777   O     0.16666   0.10655   0.53958   0.00000  Uiso   1.00
O778   O     0.16667   0.22678   0.46042   0.00000  Uiso   1.00
O779   O     0.16666   0.10654   0.46039   0.00000  Uiso   1.00
O780   O     0.16667   0.22679   0.53961   0.00000  Uiso   1.00
O781   O     0.09161   0.16667   0.53046   0.00000  Uiso   1.00
O782   O     0.24172   0.16666   0.46954   0.00000  Uiso   1.00
O783   O     0.09161   0.16666   0.45127   0.00000  Uiso   1.00
O784   O     0.24172   0.16667   0.54873   0.00000  Uiso   1.00
O785   O     0.32144   0.19667   0.44611   0.00000  Uiso   1.00
C786   C     0.00791   0.19777   0.40315   0.00000  Uiso   1.00
H787   H     0.30967   0.19897   0.37480   0.00000  Uiso   1.00
H788   H     0.02553   0.16933   0.39517   0.00000  Uiso   1.00
C789   C     0.04013   0.23687   0.39927   0.00000  Uiso   1.00
H790   H     0.01700   0.26373   0.40245   0.00000  Uiso   1.00
H791   H     0.07150   0.23837   0.42796   0.00000  Uiso   1.00
C792   C     0.06070   0.23988   0.35274   0.00000  Uiso   1.00
H793   H     0.08343   0.21321   0.34803   0.00000  Uiso   1.00
H794   H     0.08474   0.26800   0.35176   0.00000  Uiso   1.00
H795   H     0.02949   0.24122   0.65711   0.00000  Uiso   1.00
O796   O     0.00928   0.14215   0.55764   0.00000  Uiso   1.00
C797   C     0.31677   0.10659   0.57228   0.00000  Uiso   1.00
H798   H     0.00104   0.07949   0.56051   0.00000  Uiso   1.00
H799   H     0.27724   0.10211   0.55694   0.00000  Uiso   1.00
C800   C     0.31943   0.10634   0.62556   0.00000  Uiso   1.00
H801   H     0.01623   0.12774   0.64104   0.00000  Uiso   1.00
H802   H     0.28420   0.11816   0.63494   0.00000  Uiso   1.00
C803   C     0.32873   0.06379   0.64709   0.00000  Uiso   1.00
H804   H     0.30968   0.03941   0.62489   0.00000  Uiso   1.00
H805   H     0.31589   0.06201   0.34866   0.00000  Uiso   1.00
H806   H     0.03569   0.05736   0.65132   0.00000  Uiso   1.00
C807   C     0.13900   0.02119   0.42179   0.00000  Uiso   1.00
N808   N     0.10879   0.02010   0.38957   0.00000  Uiso   1.00
C809   C     0.11071   0.28862   0.56503   0.00000  Uiso   1.00
N810   N     0.08706   0.27131   0.59018   0.00000  Uiso   1.00
O811   O     0.24270   0.30349   0.47625   0.00000  Uiso   1.00
C812   C     0.27331   0.33039   0.45254   0.00000  Uiso   1.00
H813   H     0.25332   0.01006   0.42017   0.00000  Uiso   1.00
H814   H     0.30349   0.31226   0.44136   0.00000  Uiso   1.00
C815   C     0.29832   0.03001   0.48507   0.00000  Uiso   1.00
H816   H     0.26970   0.04921   0.49712   0.00000  Uiso   1.00
H817   H     0.31956   0.01525   0.51601   0.00000  Uiso   1.00
C818   C     0.00071   0.05706   0.46023   0.00000  Uiso   1.00
H819   H     0.02837   0.03816   0.44600   0.00000  Uiso   1.00
H820   H     0.02149   0.07900   0.48485   0.00000  Uiso   1.00
H821   H     0.31273   0.07453   0.43149   0.00000  Uiso   1.00
O822   O     0.15790   0.03300   0.58419   0.00000  Uiso   1.00
C823   C     0.20765   0.02517   0.60337   0.00000  Uiso   1.00
H824   H     0.23214   0.05070   0.59319   0.00000  Uiso   1.00
H825   H     0.22199   0.32963   0.59099   0.00000  Uiso   1.00
C826   C     0.21175   0.02120   0.65636   0.00000  Uiso   1.00
H827   H     0.18456   0.33064   0.66618   0.00000  Uiso   1.00
H828   H     0.24961   0.01107   0.33686   0.00000  Uiso   1.00
C829   C     0.20224   0.06154   0.34482   0.00000  Uiso   1.00
H830   H     0.21945   0.08767   0.66077   0.00000  Uiso   1.00
H831   H     0.21699   0.06224   0.38226   0.00000  Uiso   1.00
H832   H     0.16160   0.06517   0.34116   0.00000  Uiso   1.00
C833   C     0.09873   0.11674   0.37606   0.00000  Uiso   1.00
N834   N     0.06941   0.09769   0.39376   0.00000  Uiso   1.00
C835   C     0.23067   0.22114   0.62373   0.00000  Uiso   1.00
N836   N     0.25781   0.24357   0.60727   0.00000  Uiso   1.00
C837   C     0.10809   0.10997   0.61134   0.00000  Uiso   1.00
N838   N     0.08724   0.08455   0.58887   0.00000  Uiso   1.00
C839   C     0.22364   0.22549   0.38682   0.00000  Uiso   1.00
N840   N     0.24631   0.25153   0.40670   0.00000  Uiso   1.00
C841   C     0.49954   0.08716   0.50037   0.00000  Uiso   1.00
C842   C     0.49915   0.24566   0.49972   0.00000  Uiso   1.00
C843   C     0.40139   0.16794   0.48805   0.00000  Uiso   1.00
C844   C     0.59827   0.16616   0.51161   0.00000  Uiso   1.00
C845   C     0.34619   0.17272   0.48206   0.00000  Uiso   1.00
C846   C     0.65246   0.15955   0.51672   0.00000  Uiso   1.00
C847   C     0.50926   0.02006   0.46235   0.00000  Uiso   1.00
C848   C     0.47323   0.31011   0.53323   0.00000  Uiso   1.00
C849   C     0.52583   0.31364   0.47213   0.00000  Uiso   1.00
C850   C     0.48432   0.01852   0.53938   0.00000  Uiso   1.00
C851   C     0.49634   0.28998   0.49947   0.00000  Uiso   1.00
C852   C     0.49846   0.04189   0.50113   0.00000  Uiso   1.00
C853   C     0.46819   0.14135   0.35486   0.00000  Uiso   1.00
C854   C     0.53038   0.19329   0.64481   0.00000  Uiso   1.00
C855   C     0.46907   0.14077   0.63882   0.00000  Uiso   1.00
C856   C     0.52941   0.19380   0.36071   0.00000  Uiso   1.00
Cu857  Cu    0.50000   0.16667   0.54689   0.00000  Uiso   1.00
Cu858  Cu    0.50000   0.16666   0.45311   0.00000  Uiso   1.00
N859   N     0.50001   0.16668   0.61736   0.00000  Uiso   1.00
N860   N     0.49999   0.16666   0.38264   0.00000  Uiso   1.00
O861   O     0.50000   0.10655   0.53958   0.00000  Uiso   1.00
O862   O     0.50000   0.22678   0.46042   0.00000  Uiso   1.00
O863   O     0.50000   0.10654   0.46039   0.00000  Uiso   1.00
O864   O     0.50000   0.22679   0.53961   0.00000  Uiso   1.00
O865   O     0.42495   0.16667   0.53046   0.00000  Uiso   1.00
O866   O     0.57505   0.16666   0.46954   0.00000  Uiso   1.00
O867   O     0.42494   0.16666   0.45127   0.00000  Uiso   1.00
O868   O     0.57506   0.16667   0.54873   0.00000  Uiso   1.00
O869   O     0.65477   0.19667   0.44611   0.00000  Uiso   1.00
C870   C     0.34125   0.19777   0.40315   0.00000  Uiso   1.00
H871   H     0.64300   0.19897   0.37480   0.00000  Uiso   1.00
H872   H     0.35886   0.16933   0.39517   0.00000  Uiso   1.00
C873   C     0.37346   0.23687   0.39927   0.00000  Uiso   1.00
H874   H     0.35033   0.26373   0.40245   0.00000  Uiso   1.00
H875   H     0.40483   0.23837   0.42796   0.00000  Uiso   1.00
C876   C     0.39403   0.23988   0.35274   0.00000  Uiso   1.00
H877   H     0.41677   0.21321   0.34803   0.00000  Uiso   1.00
H878   H     0.41807   0.26800   0.35176   0.00000  Uiso   1.00
H879   H     0.36282   0.24122   0.65711   0.00000  Uiso   1.00
O880   O     0.34261   0.14215   0.55764   0.00000  Uiso   1.00
C881   C     0.65010   0.10659   0.57228   0.00000  Uiso   1.00
H882   H     0.33438   0.07949   0.56051   0.00000  Uiso   1.00
H883   H     0.61058   0.10211   0.55694   0.00000  Uiso   1.00
C884   C     0.65276   0.10634   0.62556   0.00000  Uiso   1.00
H885   H     0.34957   0.12774   0.64104   0.00000  Uiso   1.00
H886   H     0.61753   0.11816   0.63494   0.00000  Uiso   1.00
C887   C     0.66206   0.06379   0.64709   0.00000  Uiso   1.00
H888   H     0.64301   0.03941   0.62489   0.00000  Uiso   1.00
H889   H     0.64922   0.06201   0.34866   0.00000  Uiso   1.00
H890   H     0.36902   0.05736   0.65132   0.00000  Uiso   1.00
C891   C     0.47233   0.02119   0.42179   0.00000  Uiso   1.00
N892   N     0.44213   0.02010   0.38957   0.00000  Uiso   1.00
C893   C     0.44404   0.28862   0.56503   0.00000  Uiso   1.00
N894   N     0.42039   0.27131   0.59018   0.00000  Uiso   1.00
O895   O     0.57603   0.30349   0.47625   0.00000  Uiso   1.00
C896   C     0.60665   0.33039   0.45254   0.00000  Uiso   1.00
H897   H     0.58665   0.01006   0.42017   0.00000  Uiso   1.00
H898   H     0.63683   0.31226   0.44136   0.00000  Uiso   1.00
C899   C     0.63166   0.03001   0.48507   0.00000  Uiso   1.00
H900   H     0.60303   0.04921   0.49712   0.00000  Uiso   1.00
H901   H     0.65290   0.01525   0.51601   0.00000  Uiso   1.00
C902   C     0.33405   0.05706   0.46023   0.00000  Uiso   1.00
H903   H     0.36171   0.03816   0.44600   0.00000  Uiso   1.00
H904   H     0.35483   0.07900   0.48485   0.00000  Uiso   1.00
H905   H     0.64607   0.07453   0.43149   0.00000  Uiso   1.00
O906   O     0.49123   0.03300   0.58419   0.00000  Uiso   1.00
C907   C     0.54099   0.02517   0.60337   0.00000  Uiso   1.00
H908   H     0.56547   0.05070   0.59319   0.00000  Uiso   1.00
H909   H     0.55533   0.32963   0.59099   0.00000  Uiso   1.00
C910   C     0.54508   0.02120   0.65636   0.00000  Uiso   1.00
H911   H     0.51789   0.33064   0.66618   0.00000  Uiso   1.00
H912   H     0.58294   0.01107   0.33686   0.00000  Uiso   1.00
C913   C     0.53557   0.06154   0.34482   0.00000  Uiso   1.00
H914   H     0.55278   0.08767   0.66077   0.00000  Uiso   1.00
H915   H     0.55032   0.06224   0.38226   0.00000  Uiso   1.00
H916   H     0.49493   0.06517   0.34116   0.00000  Uiso   1.00
C917   C     0.43207   0.11674   0.37606   0.00000  Uiso   1.00
N918   N     0.40275   0.09769   0.39376   0.00000  Uiso   1.00
C919   C     0.56401   0.22114   0.62373   0.00000  Uiso   1.00
N920   N     0.59114   0.24357   0.60727   0.00000  Uiso   1.00
C921   C     0.44142   0.10997   0.61134   0.00000  Uiso   1.00
N922   N     0.42057   0.08455   0.58887   0.00000  Uiso   1.00
C923   C     0.55697   0.22549   0.38682   0.00000  Uiso   1.00
N924   N     0.57965   0.25153   0.40670   0.00000  Uiso   1.00
C925   C     0.83287   0.08716   0.50037   0.00000  Uiso   1.00
C926   C     0.83248   0.24566   0.49972   0.00000  Uiso   1.00
C927   C     0.73472   0.16794   0.48805   0.00000  Uiso   1.00
C928   C     0.93160   0.16616   0.51161   0.00000  Uiso   1.00
C929   C     0.67952   0.17272   0.48206   0.00000  Uiso   1.00
C930   C     0.98579   0.15955   0.51672   0.00000  Uiso   1.00
C931   C     0.84260   0.02006   0.46235   0.00000  Uiso   1.00
C932   C     0.80656   0.31011   0.53323   0.00000  Uiso   1.00
C933   C     0.85917   0.31364   0.47213   0.00000  Uiso   1.00
C934   C     0.81765   0.01852   0.53938   0.00000  Uiso   1.00
C935   C     0.82967   0.28998   0.49947   0.00000  Uiso   1.00
C936   C     0.83179   0.04189   0.50113   0.00000  Uiso   1.00
C937   C     0.80153   0.14135   0.35486   0.00000  Uiso   1.00
C938   C     0.86372   0.19329   0.64481   0.00000  Uiso   1.00
C939   C     0.80240   0.14077   0.63882   0.00000  Uiso   1.00
C940   C     0.86274   0.19380   0.36071   0.00000  Uiso   1.00
Cu941  Cu    0.83333   0.16667   0.54689   0.00000  Uiso   1.00
Cu942  Cu    0.83333   0.16666   0.45311   0.00000  Uiso   1.00
N943   N     0.83335   0.16668   0.61736   0.00000  Uiso   1.00
N944   N     0.83332   0.16666   0.38264   0.00000  Uiso   1.00
O945   O     0.83333   0.10655   0.53958   0.00000  Uiso   1.00
O946   O     0.83334   0.22678   0.46042   0.00000  Uiso   1.00
O947   O     0.83333   0.10654   0.46039   0.00000  Uiso   1.00
O948   O     0.83334   0.22679   0.53961   0.00000  Uiso   1.00
O949   O     0.75828   0.16667   0.53046   0.00000  Uiso   1.00
O950   O     0.90839   0.16666   0.46954   0.00000  Uiso   1.00
O951   O     0.75828   0.16666   0.45127   0.00000  Uiso   1.00
O952   O     0.90839   0.16667   0.54873   0.00000  Uiso   1.00
O953   O     0.98811   0.19667   0.44611   0.00000  Uiso   1.00
C954   C     0.67458   0.19777   0.40315   0.00000  Uiso   1.00
H955   H     0.97633   0.19897   0.37480   0.00000  Uiso   1.00
H956   H     0.69220   0.16933   0.39517   0.00000  Uiso   1.00
C957   C     0.70679   0.23687   0.39927   0.00000  Uiso   1.00
H958   H     0.68367   0.26373   0.40245   0.00000  Uiso   1.00
H959   H     0.73817   0.23837   0.42796   0.00000  Uiso   1.00
C960   C     0.72736   0.23988   0.35274   0.00000  Uiso   1.00
H961   H     0.75010   0.21321   0.34803   0.00000  Uiso   1.00
H962   H     0.75141   0.26800   0.35176   0.00000  Uiso   1.00
H963   H     0.69616   0.24122   0.65711   0.00000  Uiso   1.00
O964   O     0.67595   0.14215   0.55764   0.00000  Uiso   1.00
C965   C     0.98344   0.10659   0.57228   0.00000  Uiso   1.00
H966   H     0.66771   0.07949   0.56051   0.00000  Uiso   1.00
H967   H     0.94391   0.10211   0.55694   0.00000  Uiso   1.00
C968   C     0.98609   0.10634   0.62556   0.00000  Uiso   1.00
H969   H     0.68290   0.12774   0.64104   0.00000  Uiso   1.00
H970   H     0.95086   0.11816   0.63494   0.00000  Uiso   1.00
C971   C     0.99539   0.06379   0.64709   0.00000  Uiso   1.00
H972   H     0.97634   0.03941   0.62489   0.00000  Uiso   1.00
H973   H     0.98256   0.06201   0.34866   0.00000  Uiso   1.00
H974   H     0.70235   0.05736   0.65132   0.00000  Uiso   1.00
C975   C     0.80567   0.02119   0.42179   0.00000  Uiso   1.00
N976   N     0.77546   0.02010   0.38957   0.00000  Uiso   1.00
C977   C     0.77738   0.28862   0.56503   0.00000  Uiso   1.00
N978   N     0.75372   0.27131   0.59018   0.00000  Uiso   1.00
O979   O     0.90936   0.30349   0.47625   0.00000  Uiso   1.00
C980   C     0.93998   0.33039   0.45254   0.00000  Uiso   1.00
H981   H     0.91999   0.01006   0.42017   0.00000  Uiso   1.00
H982   H     0.97016   0.31226   0.44136   0.00000  Uiso   1.00
C983   C     0.96499   0.03001   0.48507   0.00000  Uiso   1.00
H984   H     0.93636   0.04921   0.49712   0.00000  Uiso   1.00
H985   H     0.98623   0.01525   0.51601   0.00000  Uiso   1.00
C986   C     0.66738   0.05706   0.46023   0.00000  Uiso   1.00
H987   H     0.69504   0.03816   0.44600   0.00000  Uiso   1.00
H988   H     0.68816   0.07900   0.48485   0.00000  Uiso   1.00
H989   H     0.97940   0.07453   0.43149   0.00000  Uiso   1.00
O990   O     0.82456   0.03300   0.58419   0.00000  Uiso   1.00
C991   C     0.87432   0.02517   0.60337   0.00000  Uiso   1.00
H992   H     0.89881   0.05070   0.59319   0.00000  Uiso   1.00
H993   H     0.88866   0.32963   0.59099   0.00000  Uiso   1.00
C994   C     0.87841   0.02120   0.65636   0.00000  Uiso   1.00
H995   H     0.85123   0.33064   0.66618   0.00000  Uiso   1.00
H996   H     0.91627   0.01107   0.33686   0.00000  Uiso   1.00
C997   C     0.86890   0.06154   0.34482   0.00000  Uiso   1.00
H998   H     0.88611   0.08767   0.66077   0.00000  Uiso   1.00
H999   H     0.88365   0.06224   0.38226   0.00000  Uiso   1.00
H1000  H     0.82826   0.06517   0.34116   0.00000  Uiso   1.00
C1001  C     0.76540   0.11674   0.37606   0.00000  Uiso   1.00
N1002  N     0.73608   0.09769   0.39376   0.00000  Uiso   1.00
C1003  C     0.89734   0.22114   0.62373   0.00000  Uiso   1.00
N1004  N     0.92447   0.24357   0.60727   0.00000  Uiso   1.00
C1005  C     0.77476   0.10997   0.61134   0.00000  Uiso   1.00
N1006  N     0.75391   0.08455   0.58887   0.00000  Uiso   1.00
C1007  C     0.89031   0.22549   0.38682   0.00000  Uiso   1.00
N1008  N     0.91298   0.25153   0.40670   0.00000  Uiso   1.00
C1009  C     0.16620   0.42050   0.50037   0.00000  Uiso   1.00
C1010  C     0.16581   0.57899   0.49972   0.00000  Uiso   1.00
C1011  C     0.06805   0.50127   0.48805   0.00000  Uiso   1.00
C1012  C     0.26494   0.49950   0.51161   0.00000  Uiso   1.00
C1013  C     0.01286   0.50605   0.48206   0.00000  Uiso   1.00
C1014  C     0.31912   0.49289   0.51672   0.00000  Uiso   1.00
C1015  C     0.17593   0.35339   0.46235   0.00000  Uiso   1.00
C1016  C     0.13989   0.64344   0.53323   0.00000  Uiso   1.00
C1017  C     0.19250   0.64698   0.47213   0.00000  Uiso   1.00
C1018  C     0.15099   0.35185   0.53938   0.00000  Uiso   1.00
C1019  C     0.16301   0.62331   0.49947   0.00000  Uiso   1.00
C1020  C     0.16513   0.37522   0.50113   0.00000  Uiso   1.00
C1021  C     0.13486   0.47469   0.35486   0.00000  Uiso   1.00
C1022  C     0.19705   0.52663   0.64481   0.00000  Uiso   1.00
C1023  C     0.13574   0.47410   0.63882   0.00000  Uiso   1.00
C1024  C     0.19607   0.52714   0.36071   0.00000  Uiso   1.00
Cu1025 Cu    0.16667   0.50001   0.54689   0.00000  Uiso   1.00
Cu1026 Cu    0.16667   0.49999   0.45311   0.00000  Uiso   1.00
N1027  N     0.16668   0.50001   0.61736   0.00000  Uiso   1.00
N1028  N     0.16665   0.49999   0.38264   0.00000  Uiso   1.00
O1029  O     0.16666   0.43989   0.53958   0.00000  Uiso   1.00
O1030  O     0.16667   0.56011   0.46042   0.00000  Uiso   1.00
O1031  O     0.16666   0.43988   0.46039   0.00000  Uiso   1.00
O1032  O     0.16667   0.56012   0.53961   0.00000  Uiso   1.00
O1033  O     0.09161   0.50000   0.53046   0.00000  Uiso   1.00
O1034  O     0.24172   0.50000   0.46954   0.00000  Uiso   1.00
O1035  O     0.09161   0.49999   0.45127   0.00000  Uiso   1.00
O1036  O     0.24172   0.50001   0.54873   0.00000  Uiso   1.00
O1037  O     0.32144   0.53000   0.44611   0.00000  Uiso   1.00
C1038  C     0.00791   0.53110   0.40315   0.00000  Uiso   1.00
H1039  H     0.30967   0.53230   0.37480   0.00000  Uiso   1.00
H1040  H     0.02553   0.50266   0.39517   0.00000  Uiso   1.00
C1041  C     0.04013   0.57020   0.39927   0.00000  Uiso   1.00
H1042  H     0.01700   0.59707   0.40245   0.00000  Uiso   1.00
H1043  H     0.07150   0.57170   0.42796   0.00000  Uiso   1.00
C1044  C     0.06070   0.57321   0.35274   0.00000  Uiso   1.00
H1045  H     0.08343   0.54654   0.34803   0.00000  Uiso   1.00
H1046  H     0.08474   0.60133   0.35176   0.00000  Uiso   1.00
H1047  H     0.02949   0.57455   0.65711   0.00000  Uiso   1.00
O1048  O     0.00928   0.47549   0.55764   0.00000  Uiso   1.00
C1049  C     0.31677   0.43992   0.57228   0.00000  Uiso   1.00
H1050  H     0.00104   0.41283   0.56051   0.00000  Uiso   1.00
H1051  H     0.27724   0.43544   0.55694   0.00000  Uiso   1.00
C1052  C     0.31943   0.43967   0.62556   0.00000  Uiso   1.00
H1053  H     0.01623   0.46107   0.64104   0.00000  Uiso   1.00
H1054  H     0.28420   0.45150   0.63494   0.00000  Uiso   1.00
C1055  C     0.32873   0.39713   0.64709   0.00000  Uiso   1.00
H1056  H     0.30968   0.37274   0.62489   0.00000  Uiso   1.00
H1057  H     0.31589   0.39534   0.34866   0.00000  Uiso   1.00
H1058  H     0.03569   0.39069   0.65132   0.00000  Uiso   1.00
C1059  C     0.13900   0.35452   0.42179   0.00000  Uiso   1.00
N1060  N     0.10879   0.35343   0.38957   0.00000  Uiso   1.00
C1061  C     0.11071   0.62196   0.56503   0.00000  Uiso   1.00
N1062  N     0.08706   0.60465   0.59018   0.00000  Uiso   1.00
O1063  O     0.24270   0.63682   0.47625   0.00000  Uiso   1.00
C1064  C     0.27331   0.66372   0.45254   0.00000  Uiso   1.00
H1065  H     0.25332   0.34339   0.42017   0.00000  Uiso   1.00
H1066  H     0.30349   0.64559   0.44136   0.00000  Uiso   1.00
C1067  C     0.29832   0.36335   0.48507   0.00000  Uiso   1.00
H1068  H     0.26970   0.38255   0.49712   0.00000  Uiso   1.00
H1069  H     0.31956   0.34858   0.51601   0.00000  Uiso   1.00
C1070  C     0.00071   0.39039   0.46023   0.00000  Uiso   1.00
H1071  H     0.02837   0.37149   0.44600   0.00000  Uiso   1.00
H1072  H     0.02149   0.41233   0.48485   0.00000  Uiso   1.00
H1073  H     0.31273   0.40787   0.43149   0.00000  Uiso   1.00
O1074  O     0.15790   0.36634   0.58419   0.00000  Uiso   1.00
C1075  C     0.20765   0.35850   0.60337   0.00000  Uiso   1.00
H1076  H     0.23214   0.38403   0.59319   0.00000  Uiso   1.00
H1077  H     0.22199   0.66296   0.59099   0.00000  Uiso   1.00
C1078  C     0.21175   0.35454   0.65636   0.00000  Uiso   1.00
H1079  H     0.18456   0.66397   0.66618   0.00000  Uiso   1.00
H1080  H     0.24961   0.34440   0.33686   0.00000  Uiso   1.00
C1081  C     0.20224   0.39487   0.34482   0.00000  Uiso   1.00
H1082  H     0.21945   0.42100   0.66077   0.00000  Uiso   1.00
H1083  H     0.21699   0.39558   0.38226   0.00000  Uiso   1.00
H1084  H     0.16160   0.39850   0.34116   0.00000  Uiso   1.00
C1085  C     0.09873   0.45007   0.37606   0.00000  Uiso   1.00
N1086  N     0.06941   0.43102   0.39376   0.00000  Uiso   1.00
C1087  C     0.23067   0.55448   0.62373   0.00000  Uiso   1.00
N1088  N     0.25781   0.57690   0.60727   0.00000  Uiso   1.00
C1089  C     0.10809   0.44331   0.61134   0.00000  Uiso   1.00
N1090  N     0.08724   0.41788   0.58887   0.00000  Uiso   1.00
C1091  C     0.22364   0.55883   0.38682   0.00000  Uiso   1.00
N1092  N     0.24631   0.58487   0.40670   0.00000  Uiso   1.00
C1093  C     0.49954   0.42050   0.50037   0.00000  Uiso   1.00
C1094  C     0.49915   0.57899   0.49972   0.00000  Uiso   1.00
C1095  C     0.40139   0.50127   0.48805   0.00000  Uiso   1.00
C1096  C     0.59827   0.49950   0.51161   0.00000  Uiso   1.00
C1097  C     0.34619   0.50605   0.48206   0.00000  Uiso   1.00
C1098  C     0.65246   0.49289   0.51672   0.00000  Uiso   1.00
C1099  C     0.50926   0.35339   0.46235   0.00000  Uiso   1.00
C1100  C     0.47323   0.64344   0.53323   0.00000  Uiso   1.00
C1101  C     0.52583   0.64698   0.47213   0.00000  Uiso   1.00
C1102  C     0.48432   0.35185   0.53938   0.00000  Uiso   1.00
C1103  C     0.49634   0.62331   0.49947   0.00000  Uiso   1.00
C1104  C     0.49846   0.37522   0.50113   0.00000  Uiso   1.00
C1105  C     0.46819   0.47469   0.35486   0.00000  Uiso   1.00
C1106  C     0.53038   0.52663   0.64481   0.00000  Uiso   1.00
C1107  C     0.46907   0.47410   0.63882   0.00000  Uiso   1.00
C1108  C     0.52941   0.52714   0.36071   0.00000  Uiso   1.00
Cu1109 Cu    0.50000   0.50001   0.54689   0.00000  Uiso   1.00
Cu1110 Cu    0.50000   0.49999   0.45311   0.00000  Uiso   1.00
N1111  N     0.50001   0.50001   0.61736   0.00000  Uiso   1.00
N1112  N     0.49999   0.49999   0.38264   0.00000  Uiso   1.00
O1113  O     0.50000   0.43989   0.53958   0.00000  Uiso   1.00
O1114  O     0.50000   0.56011   0.46042   0.00000  Uiso   1.00
O1115  O     0.50000   0.43988   0.46039   0.00000  Uiso   1.00
O1116  O     0.50000   0.56012   0.53961   0.00000  Uiso   1.00
O1117  O     0.42495   0.50000   0.53046   0.00000  Uiso   1.00
O1118  O     0.57505   0.50000   0.46954   0.00000  Uiso   1.00
O1119  O     0.42494   0.49999   0.45127   0.00000  Uiso   1.00
O1120  O     0.57506   0.50001   0.54873   0.00000  Uiso   1.00
O1121  O     0.65477   0.53000   0.44611   0.00000  Uiso   1.00
C1122  C     0.34125   0.53110   0.40315   0.00000  Uiso   1.00
H1123  H     0.64300   0.53230   0.37480   0.00000  Uiso   1.00
H1124  H     0.35886   0.50266   0.39517   0.00000  Uiso   1.00
C1125  C     0.37346   0.57020   0.39927   0.00000  Uiso   1.00
H1126  H     0.35033   0.59707   0.40245   0.00000  Uiso   1.00
H1127  H     0.40483   0.57170   0.42796   0.00000  Uiso   1.00
C1128  C     0.39403   0.57321   0.35274   0.00000  Uiso   1.00
H1129  H     0.41677   0.54654   0.34803   0.00000  Uiso   1.00
H1130  H     0.41807   0.60133   0.35176   0.00000  Uiso   1.00
H1131  H     0.36282   0.57455   0.65711   0.00000  Uiso   1.00
O1132  O     0.34261   0.47549   0.55764   0.00000  Uiso   1.00
C1133  C     0.65010   0.43992   0.57228   0.00000  Uiso   1.00
H1134  H     0.33438   0.41283   0.56051   0.00000  Uiso   1.00
H1135  H     0.61058   0.43544   0.55694   0.00000  Uiso   1.00
C1136  C     0.65276   0.43967   0.62556   0.00000  Uiso   1.00
H1137  H     0.34957   0.46107   0.64104   0.00000  Uiso   1.00
H1138  H     0.61753   0.45150   0.63494   0.00000  Uiso   1.00
C1139  C     0.66206   0.39713   0.64709   0.00000  Uiso   1.00
H1140  H     0.64301   0.37274   0.62489   0.00000  Uiso   1.00
H1141  H     0.64922   0.39534   0.34866   0.00000  Uiso   1.00
H1142  H     0.36902   0.39069   0.65132   0.00000  Uiso   1.00
C1143  C     0.47233   0.35452   0.42179   0.00000  Uiso   1.00
N1144  N     0.44213   0.35343   0.38957   0.00000  Uiso   1.00
C1145  C     0.44404   0.62196   0.56503   0.00000  Uiso   1.00
N1146  N     0.42039   0.60465   0.59018   0.00000  Uiso   1.00
O1147  O     0.57603   0.63682   0.47625   0.00000  Uiso   1.00
C1148  C     0.60665   0.66372   0.45254   0.00000  Uiso   1.00
H1149  H     0.58665   0.34339   0.42017   0.00000  Uiso   1.00
H1150  H     0.63683   0.64559   0.44136   0.00000  Uiso   1.00
C1151  C     0.63166   0.36335   0.48507   0.00000  Uiso   1.00
H1152  H     0.60303   0.38255   0.49712   0.00000  Uiso   1.00
H1153  H     0.65290   0.34858   0.51601   0.00000  Uiso   1.00
C1154  C     0.33405   0.39039   0.46023   0.00000  Uiso   1.00
H1155  H     0.36171   0.37149   0.44600   0.00000  Uiso   1.00
H1156  H     0.35483   0.41233   0.48485   0.00000  Uiso   1.00
H1157  H     0.64607   0.40787   0.43149   0.00000  Uiso   1.00
O1158  O     0.49123   0.36634   0.58419   0.00000  Uiso   1.00
C1159  C     0.54099   0.35850   0.60337   0.00000  Uiso   1.00
H1160  H     0.56547   0.38403   0.59319   0.00000  Uiso   1.00
H1161  H     0.55533   0.66296   0.59099   0.00000  Uiso   1.00
C1162  C     0.54508   0.35454   0.65636   0.00000  Uiso   1.00
H1163  H     0.51789   0.66397   0.66618   0.00000  Uiso   1.00
H1164  H     0.58294   0.34440   0.33686   0.00000  Uiso   1.00
C1165  C     0.53557   0.39487   0.34482   0.00000  Uiso   1.00
H1166  H     0.55278   0.42100   0.66077   0.00000  Uiso   1.00
H1167  H     0.55032   0.39558   0.38226   0.00000  Uiso   1.00
H1168  H     0.49493   0.39850   0.34116   0.00000  Uiso   1.00
C1169  C     0.43207   0.45007   0.37606   0.00000  Uiso   1.00
N1170  N     0.40275   0.43102   0.39376   0.00000  Uiso   1.00
C1171  C     0.56401   0.55448   0.62373   0.00000  Uiso   1.00
N1172  N     0.59114   0.57690   0.60727   0.00000  Uiso   1.00
C1173  C     0.44142   0.44331   0.61134   0.00000  Uiso   1.00
N1174  N     0.42057   0.41788   0.58887   0.00000  Uiso   1.00
C1175  C     0.55697   0.55883   0.38682   0.00000  Uiso   1.00
N1176  N     0.57965   0.58487   0.40670   0.00000  Uiso   1.00
C1177  C     0.83287   0.42050   0.50037   0.00000  Uiso   1.00
C1178  C     0.83248   0.57899   0.49972   0.00000  Uiso   1.00
C1179  C     0.73472   0.50127   0.48805   0.00000  Uiso   1.00
C1180  C     0.93160   0.49950   0.51161   0.00000  Uiso   1.00
C1181  C     0.67952   0.50605   0.48206   0.00000  Uiso   1.00
C1182  C     0.98579   0.49289   0.51672   0.00000  Uiso   1.00
C1183  C     0.84260   0.35339   0.46235   0.00000  Uiso   1.00
C1184  C     0.80656   0.64344   0.53323   0.00000  Uiso   1.00
C1185  C     0.85917   0.64698   0.47213   0.00000  Uiso   1.00
C1186  C     0.81765   0.35185   0.53938   0.00000  Uiso   1.00
C1187  C     0.82967   0.62331   0.49947   0.00000  Uiso   1.00
C1188  C     0.83179   0.37522   0.50113   0.00000  Uiso   1.00
C1189  C     0.80153   0.47469   0.35486   0.00000  Uiso   1.00
C1190  C     0.86372   0.52663   0.64481   0.00000  Uiso   1.00
C1191  C     0.80240   0.47410   0.63882   0.00000  Uiso   1.00
C1192  C     0.86274   0.52714   0.36071   0.00000  Uiso   1.00
Cu1193 Cu    0.83333   0.50001   0.54689   0.00000  Uiso   1.00
Cu1194 Cu    0.83333   0.49999   0.45311   0.00000  Uiso   1.00
N1195  N     0.83335   0.50001   0.61736   0.00000  Uiso   1.00
N1196  N     0.83332   0.49999   0.38264   0.00000  Uiso   1.00
O1197  O     0.83333   0.43989   0.53958   0.00000  Uiso   1.00
O1198  O     0.83334   0.56011   0.46042   0.00000  Uiso   1.00
O1199  O     0.83333   0.43988   0.46039   0.00000  Uiso   1.00
O1200  O     0.83334   0.56012   0.53961   0.00000  Uiso   1.00
O1201  O     0.75828   0.50000   0.53046   0.00000  Uiso   1.00
O1202  O     0.90839   0.50000   0.46954   0.00000  Uiso   1.00
O1203  O     0.75828   0.49999   0.45127   0.00000  Uiso   1.00
O1204  O     0.90839   0.50001   0.54873   0.00000  Uiso   1.00
O1205  O     0.98811   0.53000   0.44611   0.00000  Uiso   1.00
C1206  C     0.67458   0.53110   0.40315   0.00000  Uiso   1.00
H1207  H     0.97633   0.53230   0.37480   0.00000  Uiso   1.00
H1208  H     0.69220   0.50266   0.39517   0.00000  Uiso   1.00
C1209  C     0.70679   0.57020   0.39927   0.00000  Uiso   1.00
H1210  H     0.68367   0.59707   0.40245   0.00000  Uiso   1.00
H1211  H     0.73817   0.57170   0.42796   0.00000  Uiso   1.00
C1212  C     0.72736   0.57321   0.35274   0.00000  Uiso   1.00
H1213  H     0.75010   0.54654   0.34803   0.00000  Uiso   1.00
H1214  H     0.75141   0.60133   0.35176   0.00000  Uiso   1.00
H1215  H     0.69616   0.57455   0.65711   0.00000  Uiso   1.00
O1216  O     0.67595   0.47549   0.55764   0.00000  Uiso   1.00
C1217  C     0.98344   0.43992   0.57228   0.00000  Uiso   1.00
H1218  H     0.66771   0.41283   0.56051   0.00000  Uiso   1.00
H1219  H     0.94391   0.43544   0.55694   0.00000  Uiso   1.00
C1220  C     0.98609   0.43967   0.62556   0.00000  Uiso   1.00
H1221  H     0.68290   0.46107   0.64104   0.00000  Uiso   1.00
H1222  H     0.95086   0.45150   0.63494   0.00000  Uiso   1.00
C1223  C     0.99539   0.39713   0.64709   0.00000  Uiso   1.00
H1224  H     0.97634   0.37274   0.62489   0.00000  Uiso   1.00
H1225  H     0.98256   0.39534   0.34866   0.00000  Uiso   1.00
H1226  H     0.70235   0.39069   0.65132   0.00000  Uiso   1.00
C1227  C     0.80567   0.35452   0.42179   0.00000  Uiso   1.00
N1228  N     0.77546   0.35343   0.38957   0.00000  Uiso   1.00
C1229  C     0.77738   0.62196   0.56503   0.00000  Uiso   1.00
N1230  N     0.75372   0.60465   0.59018   0.00000  Uiso   1.00
O1231  O     0.90936   0.63682   0.47625   0.00000  Uiso   1.00
C1232  C     0.93998   0.66372   0.45254   0.00000  Uiso   1.00
H1233  H     0.91999   0.34339   0.42017   0.00000  Uiso   1.00
H1234  H     0.97016   0.64559   0.44136   0.00000  Uiso   1.00
C1235  C     0.96499   0.36335   0.48507   0.00000  Uiso   1.00
H1236  H     0.93636   0.38255   0.49712   0.00000  Uiso   1.00
H1237  H     0.98623   0.34858   0.51601   0.00000  Uiso   1.00
C1238  C     0.66738   0.39039   0.46023   0.00000  Uiso   1.00
H1239  H     0.69504   0.37149   0.44600   0.00000  Uiso   1.00
H1240  H     0.68816   0.41233   0.48485   0.00000  Uiso   1.00
H1241  H     0.97940   0.40787   0.43149   0.00000  Uiso   1.00
O1242  O     0.82456   0.36634   0.58419   0.00000  Uiso   1.00
C1243  C     0.87432   0.35850   0.60337   0.00000  Uiso   1.00
H1244  H     0.89881   0.38403   0.59319   0.00000  Uiso   1.00
H1245  H     0.88866   0.66296   0.59099   0.00000  Uiso   1.00
C1246  C     0.87841   0.35454   0.65636   0.00000  Uiso   1.00
H1247  H     0.85123   0.66397   0.66618   0.00000  Uiso   1.00
H1248  H     0.91627   0.34440   0.33686   0.00000  Uiso   1.00
C1249  C     0.86890   0.39487   0.34482   0.00000  Uiso   1.00
H1250  H     0.88611   0.42100   0.66077   0.00000  Uiso   1.00
H1251  H     0.88365   0.39558   0.38226   0.00000  Uiso   1.00
H1252  H     0.82826   0.39850   0.34116   0.00000  Uiso   1.00
C1253  C     0.76540   0.45007   0.37606   0.00000  Uiso   1.00
N1254  N     0.73608   0.43102   0.39376   0.00000  Uiso   1.00
C1255  C     0.89734   0.55448   0.62373   0.00000  Uiso   1.00
N1256  N     0.92447   0.57690   0.60727   0.00000  Uiso   1.00
C1257  C     0.77476   0.44331   0.61134   0.00000  Uiso   1.00
N1258  N     0.75391   0.41788   0.58887   0.00000  Uiso   1.00
C1259  C     0.89031   0.55883   0.38682   0.00000  Uiso   1.00
N1260  N     0.91298   0.58487   0.40670   0.00000  Uiso   1.00
C1261  C     0.16620   0.75383   0.50037   0.00000  Uiso   1.00
C1262  C     0.16581   0.91233   0.49972   0.00000  Uiso   1.00
C1263  C     0.06805   0.83460   0.48805   0.00000  Uiso   1.00
C1264  C     0.26494   0.83283   0.51161   0.00000  Uiso   1.00
C1265  C     0.01286   0.83938   0.48206   0.00000  Uiso   1.00
C1266  C     0.31912   0.82622   0.51672   0.00000  Uiso   1.00
C1267  C     0.17593   0.68673   0.46235   0.00000  Uiso   1.00
C1268  C     0.13989   0.97678   0.53323   0.00000  Uiso   1.00
C1269  C     0.19250   0.98031   0.47213   0.00000  Uiso   1.00
C1270  C     0.15099   0.68518   0.53938   0.00000  Uiso   1.00
C1271  C     0.16301   0.95664   0.49947   0.00000  Uiso   1.00
C1272  C     0.16513   0.70856   0.50113   0.00000  Uiso   1.00
C1273  C     0.13486   0.80802   0.35486   0.00000  Uiso   1.00
C1274  C     0.19705   0.85996   0.64481   0.00000  Uiso   1.00
C1275  C     0.13574   0.80743   0.63882   0.00000  Uiso   1.00
C1276  C     0.19607   0.86047   0.36071   0.00000  Uiso   1.00
Cu1277 Cu    0.16667   0.83334   0.54689   0.00000  Uiso   1.00
Cu1278 Cu    0.16667   0.83333   0.45311   0.00000  Uiso   1.00
N1279  N     0.16668   0.83334   0.61736   0.00000  Uiso   1.00
N1280  N     0.16665   0.83332   0.38264   0.00000  Uiso   1.00
O1281  O     0.16666   0.77322   0.53958   0.00000  Uiso   1.00
O1282  O     0.16667   0.89345   0.46042   0.00000  Uiso   1.00
O1283  O     0.16666   0.77321   0.46039   0.00000  Uiso   1.00
O1284  O     0.16667   0.89346   0.53961   0.00000  Uiso   1.00
O1285  O     0.09161   0.83334   0.53046   0.00000  Uiso   1.00
O1286  O     0.24172   0.83333   0.46954   0.00000  Uiso   1.00
O1287  O     0.09161   0.83333   0.45127   0.00000  Uiso   1.00
O1288  O     0.24172   0.83334   0.54873   0.00000  Uiso   1.00
O1289  O     0.32144   0.86334   0.44611   0.00000  Uiso   1.00
C1290  C     0.00791   0.86444   0.40315   0.00000  Uiso   1.00
H1291  H     0.30967   0.86564   0.37480   0.00000  Uiso   1.00
H1292  H     0.02553   0.83599   0.39517   0.00000  Uiso   1.00
C1293  C     0.04013   0.90354   0.39927   0.00000  Uiso   1.00
H1294  H     0.01700   0.93040   0.40245   0.00000  Uiso   1.00
H1295  H     0.07150   0.90504   0.42796   0.00000  Uiso   1.00
C1296  C     0.06070   0.90655   0.35274   0.00000  Uiso   1.00
H1297  H     0.08343   0.87988   0.34803   0.00000  Uiso   1.00
H1298  H     0.08474   0.93467   0.35176   0.00000  Uiso   1.00
H1299  H     0.02949   0.90789   0.65711   0.00000  Uiso   1.00
O1300  O     0.00928   0.80882   0.55764   0.00000  Uiso   1.00
C1301  C     0.31677   0.77326   0.57228   0.00000  Uiso   1.00
H1302  H     0.00104   0.74616   0.56051   0.00000  Uiso   1.00
H1303  H     0.27724   0.76878   0.55694   0.00000  Uiso   1.00
C1304  C     0.31943   0.77301   0.62556   0.00000  Uiso   1.00
H1305  H     0.01623   0.79440   0.64104   0.00000  Uiso   1.00
H1306  H     0.28420   0.78483   0.63494   0.00000  Uiso   1.00
C1307  C     0.32873   0.73046   0.64709   0.00000  Uiso   1.00
H1308  H     0.30968   0.70608   0.62489   0.00000  Uiso   1.00
H1309  H     0.31589   0.72868   0.34866   0.00000  Uiso   1.00
H1310  H     0.03569   0.72402   0.65132   0.00000  Uiso   1.00
C1311  C     0.13900   0.68786   0.42179   0.00000  Uiso   1.00
N1312  N     0.10879   0.68677   0.38957   0.00000  Uiso   1.00
C1313  C     0.11071   0.95529   0.56503   0.00000  Uiso   1.00
N1314  N     0.08706   0.93798   0.59018   0.00000  Uiso   1.00
O1315  O     0.24270   0.97015   0.47625   0.00000  Uiso   1.00
C1316  C     0.27331   0.99705   0.45254   0.00000  Uiso   1.00
H1317  H     0.25332   0.67673   0.42017   0.00000  Uiso   1.00
H1318  H     0.30349   0.97893   0.44136   0.00000  Uiso   1.00
C1319  C     0.29832   0.69668   0.48507   0.00000  Uiso   1.00
H1320  H     0.26970   0.71588   0.49712   0.00000  Uiso   1.00
H1321  H     0.31956   0.68191   0.51601   0.00000  Uiso   1.00
C1322  C     0.00071   0.72373   0.46023   0.00000  Uiso   1.00
H1323  H     0.02837   0.70482   0.44600   0.00000  Uiso   1.00
H1324  H     0.02149   0.74566   0.48485   0.00000  Uiso   1.00
H1325  H     0.31273   0.74120   0.43149   0.00000  Uiso   1.00
O1326  O     0.15790   0.69967   0.58419   0.00000  Uiso   1.00
C1327  C     0.20765   0.69184   0.60337   0.00000  Uiso   1.00
H1328  H     0.23214   0.71736   0.59319   0.00000  Uiso   1.00
H1329  H     0.22199   0.99630   0.59099   0.00000  Uiso   1.00
C1330  C     0.21175   0.68787   0.65636   0.00000  Uiso   1.00
H1331  H     0.18456   0.99731   0.66618   0.00000  Uiso   1.00
H1332  H     0.24961   0.67773   0.33686   0.00000  Uiso   1.00
C1333  C     0.20224   0.72820   0.34482   0.00000  Uiso   1.00
H1334  H     0.21945   0.75433   0.66077   0.00000  Uiso   1.00
H1335  H     0.21699   0.72891   0.38226   0.00000  Uiso   1.00
H1336  H     0.16160   0.73183   0.34116   0.00000  Uiso   1.00
C1337  C     0.09873   0.78341   0.37606   0.00000  Uiso   1.00
N1338  N     0.06941   0.76436   0.39376   0.00000  Uiso   1.00
C1339  C     0.23067   0.88781   0.62373   0.00000  Uiso   1.00
N1340  N     0.25781   0.91024   0.60727   0.00000  Uiso   1.00
C1341  C     0.10809   0.77664   0.61134   0.00000  Uiso   1.00
N1342  N     0.08724   0.75121   0.58887   0.00000  Uiso   1.00
C1343  C     0.22364   0.89216   0.38682   0.00000  Uiso   1.00
N1344  N     0.24631   0.91820   0.40670   0.00000  Uiso   1.00
C1345  C     0.49954   0.75383   0.50037   0.00000  Uiso   1.00
C1346  C     0.49915   0.91233   0.49972   0.00000  Uiso   1.00
C1347  C     0.40139   0.83460   0.48805   0.00000  Uiso   1.00
C1348  C     0.59827   0.83283   0.51161   0.00000  Uiso   1.00
C1349  C     0.34619   0.83938   0.48206   0.00000  Uiso   1.00
C1350  C     0.65246   0.82622   0.51672   0.00000  Uiso   1.00
C1351  C     0.50926   0.68673   0.46235   0.00000  Uiso   1.00
C1352  C     0.47323   0.97678   0.53323   0.00000  Uiso   1.00
C1353  C     0.52583   0.98031   0.47213   0.00000  Uiso   1.00
C1354  C     0.48432   0.68518   0.53938   0.00000  Uiso   1.00
C1355  C     0.49634   0.95664   0.49947   0.00000  Uiso   1.00
C1356  C     0.49846   0.70856   0.50113   0.00000  Uiso   1.00
C1357  C     0.46819   0.80802   0.35486   0.00000  Uiso   1.00
C1358  C     0.53038   0.85996   0.64481   0.00000  Uiso   1.00
C1359  C     0.46907   0.80743   0.63882   0.00000  Uiso   1.00
C1360  C     0.52941   0.86047   0.36071   0.00000  Uiso   1.00
Cu1361 Cu    0.50000   0.83334   0.54689   0.00000  Uiso   1.00
Cu1362 Cu    0.50000   0.83333   0.45311   0.00000  Uiso   1.00
N1363  N     0.50001   0.83334   0.61736   0.00000  Uiso   1.00
N1364  N     0.49999   0.83332   0.38264   0.00000  Uiso   1.00
O1365  O     0.50000   0.77322   0.53958   0.00000  Uiso   1.00
O1366  O     0.50000   0.89345   0.46042   0.00000  Uiso   1.00
O1367  O     0.50000   0.77321   0.46039   0.00000  Uiso   1.00
O1368  O     0.50000   0.89346   0.53961   0.00000  Uiso   1.00
O1369  O     0.42495   0.83334   0.53046   0.00000  Uiso   1.00
O1370  O     0.57505   0.83333   0.46954   0.00000  Uiso   1.00
O1371  O     0.42494   0.83333   0.45127   0.00000  Uiso   1.00
O1372  O     0.57506   0.83334   0.54873   0.00000  Uiso   1.00
O1373  O     0.65477   0.86334   0.44611   0.00000  Uiso   1.00
C1374  C     0.34125   0.86444   0.40315   0.00000  Uiso   1.00
H1375  H     0.64300   0.86564   0.37480   0.00000  Uiso   1.00
H1376  H     0.35886   0.83599   0.39517   0.00000  Uiso   1.00
C1377  C     0.37346   0.90354   0.39927   0.00000  Uiso   1.00
H1378  H     0.35033   0.93040   0.40245   0.00000  Uiso   1.00
H1379  H     0.40483   0.90504   0.42796   0.00000  Uiso   1.00
C1380  C     0.39403   0.90655   0.35274   0.00000  Uiso   1.00
H1381  H     0.41677   0.87988   0.34803   0.00000  Uiso   1.00
H1382  H     0.41807   0.93467   0.35176   0.00000  Uiso   1.00
H1383  H     0.36282   0.90789   0.65711   0.00000  Uiso   1.00
O1384  O     0.34261   0.80882   0.55764   0.00000  Uiso   1.00
C1385  C     0.65010   0.77326   0.57228   0.00000  Uiso   1.00
H1386  H     0.33438   0.74616   0.56051   0.00000  Uiso   1.00
H1387  H     0.61058   0.76878   0.55694   0.00000  Uiso   1.00
C1388  C     0.65276   0.77301   0.62556   0.00000  Uiso   1.00
H1389  H     0.34957   0.79440   0.64104   0.00000  Uiso   1.00
H1390  H     0.61753   0.78483   0.63494   0.00000  Uiso   1.00
C1391  C     0.66206   0.73046   0.64709   0.00000  Uiso   1.00
H1392  H     0.64301   0.70608   0.62489   0.00000  Uiso   1.00
H1393  H     0.64922   0.72868   0.34866   0.00000  Uiso   1.00
H1394  H     0.36902   0.72402   0.65132   0.00000  Uiso   1.00
C1395  C     0.47233   0.68786   0.42179   0.00000  Uiso   1.00
N1396  N     0.44213   0.68677   0.38957   0.00000  Uiso   1.00
C1397  C     0.44404   0.95529   0.56503   0.00000  Uiso   1.00
N1398  N     0.42039   0.93798   0.59018   0.00000  Uiso   1.00
O1399  O     0.57603   0.97015   0.47625   0.00000  Uiso   1.00
C1400  C     0.60665   0.99705   0.45254   0.00000  Uiso   1.00
H1401  H     0.58665   0.67673   0.42017   0.00000  Uiso   1.00
H1402  H     0.63683   0.97893   0.44136   0.00000  Uiso   1.00
C1403  C     0.63166   0.69668   0.48507   0.00000  Uiso   1.00
H1404  H     0.60303   0.71588   0.49712   0.00000  Uiso   1.00
H1405  H     0.65290   0.68191   0.51601   0.00000  Uiso   1.00
C1406  C     0.33405   0.72373   0.46023   0.00000  Uiso   1.00
H1407  H     0.36171   0.70482   0.44600   0.00000  Uiso   1.00
H1408  H     0.35483   0.74566   0.48485   0.00000  Uiso   1.00
H1409  H     0.64607   0.74120   0.43149   0.00000  Uiso   1.00
O1410  O     0.49123   0.69967   0.58419   0.00000  Uiso   1.00
C1411  C     0.54099   0.69184   0.60337   0.00000  Uiso   1.00
H1412  H     0.56547   0.71736   0.59319   0.00000  Uiso   1.00
H1413  H     0.55533   0.99630   0.59099   0.00000  Uiso   1.00
C1414  C     0.54508   0.68787   0.65636   0.00000  Uiso   1.00
H1415  H     0.51789   0.99731   0.66618   0.00000  Uiso   1.00
H1416  H     0.58294   0.67773   0.33686   0.00000  Uiso   1.00
C1417  C     0.53557   0.72820   0.34482   0.00000  Uiso   1.00
H1418  H     0.55278   0.75433   0.66077   0.00000  Uiso   1.00
H1419  H     0.55032   0.72891   0.38226   0.00000  Uiso   1.00
H1420  H     0.49493   0.73183   0.34116   0.00000  Uiso   1.00
C1421  C     0.43207   0.78341   0.37606   0.00000  Uiso   1.00
N1422  N     0.40275   0.76436   0.39376   0.00000  Uiso   1.00
C1423  C     0.56401   0.88781   0.62373   0.00000  Uiso   1.00
N1424  N     0.59114   0.91024   0.60727   0.00000  Uiso   1.00
C1425  C     0.44142   0.77664   0.61134   0.00000  Uiso   1.00
N1426  N     0.42057   0.75121   0.58887   0.00000  Uiso   1.00
C1427  C     0.55697   0.89216   0.38682   0.00000  Uiso   1.00
N1428  N     0.57965   0.91820   0.40670   0.00000  Uiso   1.00
C1429  C     0.83287   0.75383   0.50037   0.00000  Uiso   1.00
C1430  C     0.83248   0.91233   0.49972   0.00000  Uiso   1.00
C1431  C     0.73472   0.83460   0.48805   0.00000  Uiso   1.00
C1432  C     0.93160   0.83283   0.51161   0.00000  Uiso   1.00
C1433  C     0.67952   0.83938   0.48206   0.00000  Uiso   1.00
C1434  C     0.98579   0.82622   0.51672   0.00000  Uiso   1.00
C1435  C     0.84260   0.68673   0.46235   0.00000  Uiso   1.00
C1436  C     0.80656   0.97678   0.53323   0.00000  Uiso   1.00
C1437  C     0.85917   0.98031   0.47213   0.00000  Uiso   1.00
C1438  C     0.81765   0.68518   0.53938   0.00000  Uiso   1.00
C1439  C     0.82967   0.95664   0.49947   0.00000  Uiso   1.00
C1440  C     0.83179   0.70856   0.50113   0.00000  Uiso   1.00
C1441  C     0.80153   0.80802   0.35486   0.00000  Uiso   1.00
C1442  C     0.86372   0.85996   0.64481   0.00000  Uiso   1.00
C1443  C     0.80240   0.80743   0.63882   0.00000  Uiso   1.00
C1444  C     0.86274   0.86047   0.36071   0.00000  Uiso   1.00
Cu1445 Cu    0.83333   0.83334   0.54689   0.00000  Uiso   1.00
Cu1446 Cu    0.83333   0.83333   0.45311   0.00000  Uiso   1.00
N1447  N     0.83335   0.83334   0.61736   0.00000  Uiso   1.00
N1448  N     0.83332   0.83332   0.38264   0.00000  Uiso   1.00
O1449  O     0.83333   0.77322   0.53958   0.00000  Uiso   1.00
O1450  O     0.83334   0.89345   0.46042   0.00000  Uiso   1.00
O1451  O     0.83333   0.77321   0.46039   0.00000  Uiso   1.00
O1452  O     0.83334   0.89346   0.53961   0.00000  Uiso   1.00
O1453  O     0.75828   0.83334   0.53046   0.00000  Uiso   1.00
O1454  O     0.90839   0.83333   0.46954   0.00000  Uiso   1.00
O1455  O     0.75828   0.83333   0.45127   0.00000  Uiso   1.00
O1456  O     0.90839   0.83334   0.54873   0.00000  Uiso   1.00
O1457  O     0.98811   0.86334   0.44611   0.00000  Uiso   1.00
C1458  C     0.67458   0.86444   0.40315   0.00000  Uiso   1.00
H1459  H     0.97633   0.86564   0.37480   0.00000  Uiso   1.00
H1460  H     0.69220   0.83599   0.39517   0.00000  Uiso   1.00
C1461  C     0.70679   0.90354   0.39927   0.00000  Uiso   1.00
H1462  H     0.68367   0.93040   0.40245   0.00000  Uiso   1.00
H1463  H     0.73817   0.90504   0.42796   0.00000  Uiso   1.00
C1464  C     0.72736   0.90655   0.35274   0.00000  Uiso   1.00
H1465  H     0.75010   0.87988   0.34803   0.00000  Uiso   1.00
H1466  H     0.75141   0.93467   0.35176   0.00000  Uiso   1.00
H1467  H     0.69616   0.90789   0.65711   0.00000  Uiso   1.00
O1468  O     0.67595   0.80882   0.55764   0.00000  Uiso   1.00
C1469  C     0.98344   0.77326   0.57228   0.00000  Uiso   1.00
H1470  H     0.66771   0.74616   0.56051   0.00000  Uiso   1.00
H1471  H     0.94391   0.76878   0.55694   0.00000  Uiso   1.00
C1472  C     0.98609   0.77301   0.62556   0.00000  Uiso   1.00
H1473  H     0.68290   0.79440   0.64104   0.00000  Uiso   1.00
H1474  H     0.95086   0.78483   0.63494   0.00000  Uiso   1.00
C1475  C     0.99539   0.73046   0.64709   0.00000  Uiso   1.00
H1476  H     0.97634   0.70608   0.62489   0.00000  Uiso   1.00
H1477  H     0.98256   0.72868   0.34866   0.00000  Uiso   1.00
H1478  H     0.70235   0.72402   0.65132   0.00000  Uiso   1.00
C1479  C     0.80567   0.68786   0.42179   0.00000  Uiso   1.00
N1480  N     0.77546   0.68677   0.38957   0.00000  Uiso   1.00
C1481  C     0.77738   0.95529   0.56503   0.00000  Uiso   1.00
N1482  N     0.75372   0.93798   0.59018   0.00000  Uiso   1.00
O1483  O     0.90936   0.97015   0.47625   0.00000  Uiso   1.00
C1484  C     0.93998   0.99705   0.45254   0.00000  Uiso   1.00
H1485  H     0.91999   0.67673   0.42017   0.00000  Uiso   1.00
H1486  H     0.97016   0.97893   0.44136   0.00000  Uiso   1.00
C1487  C     0.96499   0.69668   0.48507   0.00000  Uiso   1.00
H1488  H     0.93636   0.71588   0.49712   0.00000  Uiso   1.00
H1489  H     0.98623   0.68191   0.51601   0.00000  Uiso   1.00
C1490  C     0.66738   0.72373   0.46023   0.00000  Uiso   1.00
H1491  H     0.69504   0.70482   0.44600   0.00000  Uiso   1.00
H1492  H     0.68816   0.74566   0.48485   0.00000  Uiso   1.00
H1493  H     0.97940   0.74120   0.43149   0.00000  Uiso   1.00
O1494  O     0.82456   0.69967   0.58419   0.00000  Uiso   1.00
C1495  C     0.87432   0.69184   0.60337   0.00000  Uiso   1.00
H1496  H     0.89881   0.71736   0.59319   0.00000  Uiso   1.00
H1497  H     0.88866   0.99630   0.59099   0.00000  Uiso   1.00
C1498  C     0.87841   0.68787   0.65636   0.00000  Uiso   1.00
H1499  H     0.85123   0.99731   0.66618   0.00000  Uiso   1.00
H1500  H     0.91627   0.67773   0.33686   0.00000  Uiso   1.00
C1501  C     0.86890   0.72820   0.34482   0.00000  Uiso   1.00
H1502  H     0.88611   0.75433   0.66077   0.00000  Uiso   1.00
H1503  H     0.88365   0.72891   0.38226   0.00000  Uiso   1.00
H1504  H     0.82826   0.73183   0.34116   0.00000  Uiso   1.00
C1505  C     0.76540   0.78341   0.37606   0.00000  Uiso   1.00
N1506  N     0.73608   0.76436   0.39376   0.00000  Uiso   1.00
C1507  C     0.89734   0.88781   0.62373   0.00000  Uiso   1.00
N1508  N     0.92447   0.91024   0.60727   0.00000  Uiso   1.00
C1509  C     0.77476   0.77664   0.61134   0.00000  Uiso   1.00
N1510  N     0.75391   0.75121   0.58887   0.00000  Uiso   1.00
C1511  C     0.89031   0.89216   0.38682   0.00000  Uiso   1.00
N1512  N     0.91298   0.91820   0.40670   0.00000  Uiso   1.00
C1513  C     0.16620   0.08716   0.83371   0.00000  Uiso   1.00
C1514  C     0.16581   0.24566   0.83306   0.00000  Uiso   1.00
C1515  C     0.06805   0.16794   0.82138   0.00000  Uiso   1.00
C1516  C     0.26494   0.16616   0.84495   0.00000  Uiso   1.00
C1517  C     0.01286   0.17272   0.81539   0.00000  Uiso   1.00
C1518  C     0.31912   0.15955   0.85005   0.00000  Uiso   1.00
C1519  C     0.17593   0.02006   0.79568   0.00000  Uiso   1.00
C1520  C     0.13989   0.31011   0.86656   0.00000  Uiso   1.00
C1521  C     0.19250   0.31364   0.80546   0.00000  Uiso   1.00
C1522  C     0.15099   0.01852   0.87272   0.00000  Uiso   1.00
C1523  C     0.16301   0.28998   0.83280   0.00000  Uiso   1.00
C1524  C     0.16513   0.04189   0.83446   0.00000  Uiso   1.00
C1525  C     0.13486   0.14135   0.68819   0.00000  Uiso   1.00
C1526  C     0.19705   0.19329   0.97815   0.00000  Uiso   1.00
C1527  C     0.13574   0.14077   0.97215   0.00000  Uiso   1.00
C1528  C     0.19607   0.19380   0.69405   0.00000  Uiso   1.00
Cu1529 Cu    0.16667   0.16667   0.88022   0.00000  Uiso   1.00
Cu1530 Cu    0.16667   0.16666   0.78645   0.00000  Uiso   1.00
N1531  N     0.16668   0.16668   0.95069   0.00000  Uiso   1.00
N1532  N     0.16665   0.16666   0.71597   0.00000  Uiso   1.00
O1533  O     0.16666   0.10655   0.87291   0.00000  Uiso   1.00
O1534  O     0.16667   0.22678   0.79375   0.00000  Uiso   1.00
O1535  O     0.16666   0.10654   0.79372   0.00000  Uiso   1.00
O1536  O     0.16667   0.22679   0.87294   0.00000  Uiso   1.00
O1537  O     0.09161   0.16667   0.86379   0.00000  Uiso   1.00
O1538  O     0.24172   0.16666   0.80288   0.00000  Uiso   1.00
O1539  O     0.09161   0.16666   0.78460   0.00000  Uiso   1.00
O1540  O     0.24172   0.16667   0.88207   0.00000  Uiso   1.00
O1541  O     0.32144   0.19667   0.77944   0.00000  Uiso   1.00
C1542  C     0.00791   0.19777   0.73648   0.00000  Uiso   1.00
H1543  H     0.30967   0.19897   0.70813   0.00000  Uiso   1.00
H1544  H     0.02553   0.16933   0.72850   0.00000  Uiso   1.00
C1545  C     0.04013   0.23687   0.73260   0.00000  Uiso   1.00
H1546  H     0.01700   0.26373   0.73579   0.00000  Uiso   1.00
H1547  H     0.07150   0.23837   0.76129   0.00000  Uiso   1.00
C1548  C     0.06070   0.23988   0.68607   0.00000  Uiso   1.00
H1549  H     0.08343   0.21321   0.68136   0.00000  Uiso   1.00
H1550  H     0.08474   0.26800   0.68509   0.00000  Uiso   1.00
H1551  H     0.02949   0.24122   0.99044   0.00000  Uiso   1.00
O1552  O     0.00928   0.14215   0.89097   0.00000  Uiso   1.00
C1553  C     0.31677   0.10659   0.90561   0.00000  Uiso   1.00
H1554  H     0.00104   0.07949   0.89384   0.00000  Uiso   1.00
H1555  H     0.27724   0.10211   0.89028   0.00000  Uiso   1.00
C1556  C     0.31943   0.10634   0.95889   0.00000  Uiso   1.00
H1557  H     0.01623   0.12774   0.97437   0.00000  Uiso   1.00
H1558  H     0.28420   0.11816   0.96827   0.00000  Uiso   1.00
C1559  C     0.32873   0.06379   0.98042   0.00000  Uiso   1.00
H1560  H     0.30968   0.03941   0.95822   0.00000  Uiso   1.00
H1561  H     0.31589   0.06201   0.68200   0.00000  Uiso   1.00
H1562  H     0.03569   0.05736   0.98466   0.00000  Uiso   1.00
C1563  C     0.13900   0.02119   0.75512   0.00000  Uiso   1.00
N1564  N     0.10879   0.02010   0.72290   0.00000  Uiso   1.00
C1565  C     0.11071   0.28862   0.89836   0.00000  Uiso   1.00
N1566  N     0.08706   0.27131   0.92352   0.00000  Uiso   1.00
O1567  O     0.24270   0.30349   0.80959   0.00000  Uiso   1.00
C1568  C     0.27331   0.33039   0.78587   0.00000  Uiso   1.00
H1569  H     0.25332   0.01006   0.75351   0.00000  Uiso   1.00
H1570  H     0.30349   0.31226   0.77470   0.00000  Uiso   1.00
C1571  C     0.29832   0.03001   0.81840   0.00000  Uiso   1.00
H1572  H     0.26970   0.04921   0.83045   0.00000  Uiso   1.00
H1573  H     0.31956   0.01525   0.84935   0.00000  Uiso   1.00
C1574  C     0.00071   0.05706   0.79356   0.00000  Uiso   1.00
H1575  H     0.02837   0.03816   0.77933   0.00000  Uiso   1.00
H1576  H     0.02149   0.07900   0.81818   0.00000  Uiso   1.00
H1577  H     0.31273   0.07453   0.76483   0.00000  Uiso   1.00
O1578  O     0.15790   0.03300   0.91752   0.00000  Uiso   1.00
C1579  C     0.20765   0.02517   0.93670   0.00000  Uiso   1.00
H1580  H     0.23214   0.05070   0.92652   0.00000  Uiso   1.00
H1581  H     0.22199   0.32963   0.92432   0.00000  Uiso   1.00
C1582  C     0.21175   0.02120   0.98969   0.00000  Uiso   1.00
H1583  H     0.18456   0.33064   0.99951   0.00000  Uiso   1.00
H1584  H     0.24961   0.01107   0.67019   0.00000  Uiso   1.00
C1585  C     0.20224   0.06154   0.67815   0.00000  Uiso   1.00
H1586  H     0.21945   0.08767   0.99410   0.00000  Uiso   1.00
H1587  H     0.21699   0.06224   0.71559   0.00000  Uiso   1.00
H1588  H     0.16160   0.06517   0.67449   0.00000  Uiso   1.00
C1589  C     0.09873   0.11674   0.70940   0.00000  Uiso   1.00
N1590  N     0.06941   0.09769   0.72709   0.00000  Uiso   1.00
C1591  C     0.23067   0.22114   0.95706   0.00000  Uiso   1.00
N1592  N     0.25781   0.24357   0.94060   0.00000  Uiso   1.00
C1593  C     0.10809   0.10997   0.94467   0.00000  Uiso   1.00
N1594  N     0.08724   0.08455   0.92221   0.00000  Uiso   1.00
C1595  C     0.22364   0.22549   0.72016   0.00000  Uiso   1.00
N1596  N     0.24631   0.25153   0.74003   0.00000  Uiso   1.00
C1597  C     0.49954   0.08716   0.83371   0.00000  Uiso   1.00
C1598  C     0.49915   0.24566   0.83306   0.00000  Uiso   1.00
C1599  C     0.40139   0.16794   0.82138   0.00000  Uiso   1.00
C1600  C     0.59827   0.16616   0.84495   0.00000  Uiso   1.00
C1601  C     0.34619   0.17272   0.81539   0.00000  Uiso   1.00
C1602  C     0.65246   0.15955   0.85005   0.00000  Uiso   1.00
C1603  C     0.50926   0.02006   0.79568   0.00000  Uiso   1.00
C1604  C     0.47323   0.31011   0.86656   0.00000  Uiso   1.00
C1605  C     0.52583   0.31364   0.80546   0.00000  Uiso   1.00
C1606  C     0.48432   0.01852   0.87272   0.00000  Uiso   1.00
C1607  C     0.49634   0.28998   0.83280   0.00000  Uiso   1.00
C1608  C     0.49846   0.04189   0.83446   0.00000  Uiso   1.00
C1609  C     0.46819   0.14135   0.68819   0.00000  Uiso   1.00
C1610  C     0.53038   0.19329   0.97815   0.00000  Uiso   1.00
C1611  C     0.46907   0.14077   0.97215   0.00000  Uiso   1.00
C1612  C     0.52941   0.19380   0.69405   0.00000  Uiso   1.00
Cu1613 Cu    0.50000   0.16667   0.88022   0.00000  Uiso   1.00
Cu1614 Cu    0.50000   0.16666   0.78645   0.00000  Uiso   1.00
N1615  N     0.50001   0.16668   0.95069   0.00000  Uiso   1.00
N1616  N     0.49999   0.16666   0.71597   0.00000  Uiso   1.00
O1617  O     0.50000   0.10655   0.87291   0.00000  Uiso   1.00
O1618  O     0.50000   0.22678   0.79375   0.00000  Uiso   1.00
O1619  O     0.50000   0.10654   0.79372   0.00000  Uiso   1.00
O1620  O     0.50000   0.22679   0.87294   0.00000  Uiso   1.00
O1621  O     0.42495   0.16667   0.86379   0.00000  Uiso   1.00
O1622  O     0.57505   0.16666   0.80288   0.00000  Uiso   1.00
O1623  O     0.42494   0.16666   0.78460   0.00000  Uiso   1.00
O1624  O     0.57506   0.16667   0.88207   0.00000  Uiso   1.00
O1625  O     0.65477   0.19667   0.77944   0.00000  Uiso   1.00
C1626  C     0.34125   0.19777   0.73648   0.00000  Uiso   1.00
H1627  H     0.64300   0.19897   0.70813   0.00000  Uiso   1.00
H1628  H     0.35886   0.16933   0.72850   0.00000  Uiso   1.00
C1629  C     0.37346   0.23687   0.73260   0.00000  Uiso   1.00
H1630  H     0.35033   0.26373   0.73579   0.00000  Uiso   1.00
H1631  H     0.40483   0.23837   0.76129   0.00000  Uiso   1.00
C1632  C     0.39403   0.23988   0.68607   0.00000  Uiso   1.00
H1633  H     0.41677   0.21321   0.68136   0.00000  Uiso   1.00
H1634  H     0.41807   0.26800   0.68509   0.00000  Uiso   1.00
H1635  H     0.36282   0.24122   0.99044   0.00000  Uiso   1.00
O1636  O     0.34261   0.14215   0.89097   0.00000  Uiso   1.00
C1637  C     0.65010   0.10659   0.90561   0.00000  Uiso   1.00
H1638  H     0.33438   0.07949   0.89384   0.00000  Uiso   1.00
H1639  H     0.61058   0.10211   0.89028   0.00000  Uiso   1.00
C1640  C     0.65276   0.10634   0.95889   0.00000  Uiso   1.00
H1641  H     0.34957   0.12774   0.97437   0.00000  Uiso   1.00
H1642  H     0.61753   0.11816   0.96827   0.00000  Uiso   1.00
C1643  C     0.66206   0.06379   0.98042   0.00000  Uiso   1.00
H1644  H     0.64301   0.03941   0.95822   0.00000  Uiso   1.00
H1645  H     0.64922   0.06201   0.68200   0.00000  Uiso   1.00
H1646  H     0.36902   0.05736   0.98466   0.00000  Uiso   1.00
C1647  C     0.47233   0.02119   0.75512   0.00000  Uiso   1.00
N1648  N     0.44213   0.02010   0.72290   0.00000  Uiso   1.00
C1649  C     0.44404   0.28862   0.89836   0.00000  Uiso   1.00
N1650  N     0.42039   0.27131   0.92352   0.00000  Uiso   1.00
O1651  O     0.57603   0.30349   0.80959   0.00000  Uiso   1.00
C1652  C     0.60665   0.33039   0.78587   0.00000  Uiso   1.00
H1653  H     0.58665   0.01006   0.75351   0.00000  Uiso   1.00
H1654  H     0.63683   0.31226   0.77470   0.00000  Uiso   1.00
C1655  C     0.63166   0.03001   0.81840   0.00000  Uiso   1.00
H1656  H     0.60303   0.04921   0.83045   0.00000  Uiso   1.00
H1657  H     0.65290   0.01525   0.84935   0.00000  Uiso   1.00
C1658  C     0.33405   0.05706   0.79356   0.00000  Uiso   1.00
H1659  H     0.36171   0.03816   0.77933   0.00000  Uiso   1.00
H1660  H     0.35483   0.07900   0.81818   0.00000  Uiso   1.00
H1661  H     0.64607   0.07453   0.76483   0.00000  Uiso   1.00
O1662  O     0.49123   0.03300   0.91752   0.00000  Uiso   1.00
C1663  C     0.54099   0.02517   0.93670   0.00000  Uiso   1.00
H1664  H     0.56547   0.05070   0.92652   0.00000  Uiso   1.00
H1665  H     0.55533   0.32963   0.92432   0.00000  Uiso   1.00
C1666  C     0.54508   0.02120   0.98969   0.00000  Uiso   1.00
H1667  H     0.51789   0.33064   0.99951   0.00000  Uiso   1.00
H1668  H     0.58294   0.01107   0.67019   0.00000  Uiso   1.00
C1669  C     0.53557   0.06154   0.67815   0.00000  Uiso   1.00
H1670  H     0.55278   0.08767   0.99410   0.00000  Uiso   1.00
H1671  H     0.55032   0.06224   0.71559   0.00000  Uiso   1.00
H1672  H     0.49493   0.06517   0.67449   0.00000  Uiso   1.00
C1673  C     0.43207   0.11674   0.70940   0.00000  Uiso   1.00
N1674  N     0.40275   0.09769   0.72709   0.00000  Uiso   1.00
C1675  C     0.56401   0.22114   0.95706   0.00000  Uiso   1.00
N1676  N     0.59114   0.24357   0.94060   0.00000  Uiso   1.00
C1677  C     0.44142   0.10997   0.94467   0.00000  Uiso   1.00
N1678  N     0.42057   0.08455   0.92221   0.00000  Uiso   1.00
C1679  C     0.55697   0.22549   0.72016   0.00000  Uiso   1.00
N1680  N     0.57965   0.25153   0.74003   0.00000  Uiso   1.00
C1681  C     0.83287   0.08716   0.83371   0.00000  Uiso   1.00
C1682  C     0.83248   0.24566   0.83306   0.00000  Uiso   1.00
C1683  C     0.73472   0.16794   0.82138   0.00000  Uiso   1.00
C1684  C     0.93160   0.16616   0.84495   0.00000  Uiso   1.00
C1685  C     0.67952   0.17272   0.81539   0.00000  Uiso   1.00
C1686  C     0.98579   0.15955   0.85005   0.00000  Uiso   1.00
C1687  C     0.84260   0.02006   0.79568   0.00000  Uiso   1.00
C1688  C     0.80656   0.31011   0.86656   0.00000  Uiso   1.00
C1689  C     0.85917   0.31364   0.80546   0.00000  Uiso   1.00
C1690  C     0.81765   0.01852   0.87272   0.00000  Uiso   1.00
C1691  C     0.82967   0.28998   0.83280   0.00000  Uiso   1.00
C1692  C     0.83179   0.04189   0.83446   0.00000  Uiso   1.00
C1693  C     0.80153   0.14135   0.68819   0.00000  Uiso   1.00
C1694  C     0.86372   0.19329   0.97815   0.00000  Uiso   1.00
C1695  C     0.80240   0.14077   0.97215   0.00000  Uiso   1.00
C1696  C     0.86274   0.19380   0.69405   0.00000  Uiso   1.00
Cu1697 Cu    0.83333   0.16667   0.88022   0.00000  Uiso   1.00
Cu1698 Cu    0.83333   0.16666   0.78645   0.00000  Uiso   1.00
N1699  N     0.83335   0.16668   0.95069   0.00000  Uiso   1.00
N1700  N     0.83332   0.16666   0.71597   0.00000  Uiso   1.00
O1701  O     0.83333   0.10655   0.87291   0.00000  Uiso   1.00
O1702  O     0.83334   0.22678   0.79375   0.00000  Uiso   1.00
O1703  O     0.83333   0.10654   0.79372   0.00000  Uiso   1.00
O1704  O     0.83334   0.22679   0.87294   0.00000  Uiso   1.00
O1705  O     0.75828   0.16667   0.86379   0.00000  Uiso   1.00
O1706  O     0.90839   0.16666   0.80288   0.00000  Uiso   1.00
O1707  O     0.75828   0.16666   0.78460   0.00000  Uiso   1.00
O1708  O     0.90839   0.16667   0.88207   0.00000  Uiso   1.00
O1709  O     0.98811   0.19667   0.77944   0.00000  Uiso   1.00
C1710  C     0.67458   0.19777   0.73648   0.00000  Uiso   1.00
H1711  H     0.97633   0.19897   0.70813   0.00000  Uiso   1.00
H1712  H     0.69220   0.16933   0.72850   0.00000  Uiso   1.00
C1713  C     0.70679   0.23687   0.73260   0.00000  Uiso   1.00
H1714  H     0.68367   0.26373   0.73579   0.00000  Uiso   1.00
H1715  H     0.73817   0.23837   0.76129   0.00000  Uiso   1.00
C1716  C     0.72736   0.23988   0.68607   0.00000  Uiso   1.00
H1717  H     0.75010   0.21321   0.68136   0.00000  Uiso   1.00
H1718  H     0.75141   0.26800   0.68509   0.00000  Uiso   1.00
H1719  H     0.69616   0.24122   0.99044   0.00000  Uiso   1.00
O1720  O     0.67595   0.14215   0.89097   0.00000  Uiso   1.00
C1721  C     0.98344   0.10659   0.90561   0.00000  Uiso   1.00
H1722  H     0.66771   0.07949   0.89384   0.00000  Uiso   1.00
H1723  H     0.94391   0.10211   0.89028   0.00000  Uiso   1.00
C1724  C     0.98609   0.10634   0.95889   0.00000  Uiso   1.00
H1725  H     0.68290   0.12774   0.97437   0.00000  Uiso   1.00
H1726  H     0.95086   0.11816   0.96827   0.00000  Uiso   1.00
C1727  C     0.99539   0.06379   0.98042   0.00000  Uiso   1.00
H1728  H     0.97634   0.03941   0.95822   0.00000  Uiso   1.00
H1729  H     0.98256   0.06201   0.68200   0.00000  Uiso   1.00
H1730  H     0.70235   0.05736   0.98466   0.00000  Uiso   1.00
C1731  C     0.80567   0.02119   0.75512   0.00000  Uiso   1.00
N1732  N     0.77546   0.02010   0.72290   0.00000  Uiso   1.00
C1733  C     0.77738   0.28862   0.89836   0.00000  Uiso   1.00
N1734  N     0.75372   0.27131   0.92352   0.00000  Uiso   1.00
O1735  O     0.90936   0.30349   0.80959   0.00000  Uiso   1.00
C1736  C     0.93998   0.33039   0.78587   0.00000  Uiso   1.00
H1737  H     0.91999   0.01006   0.75351   0.00000  Uiso   1.00
H1738  H     0.97016   0.31226   0.77470   0.00000  Uiso   1.00
C1739  C     0.96499   0.03001   0.81840   0.00000  Uiso   1.00
H1740  H     0.93636   0.04921   0.83045   0.00000  Uiso   1.00
H1741  H     0.98623   0.01525   0.84935   0.00000  Uiso   1.00
C1742  C     0.66738   0.05706   0.79356   0.00000  Uiso   1.00
H1743  H     0.69504   0.03816   0.77933   0.00000  Uiso   1.00
H1744  H     0.68816   0.07900   0.81818   0.00000  Uiso   1.00
H1745  H     0.97940   0.07453   0.76483   0.00000  Uiso   1.00
O1746  O     0.82456   0.03300   0.91752   0.00000  Uiso   1.00
C1747  C     0.87432   0.02517   0.93670   0.00000  Uiso   1.00
H1748  H     0.89881   0.05070   0.92652   0.00000  Uiso   1.00
H1749  H     0.88866   0.32963   0.92432   0.00000  Uiso   1.00
C1750  C     0.87841   0.02120   0.98969   0.00000  Uiso   1.00
H1751  H     0.85123   0.33064   0.99951   0.00000  Uiso   1.00
H1752  H     0.91627   0.01107   0.67019   0.00000  Uiso   1.00
C1753  C     0.86890   0.06154   0.67815   0.00000  Uiso   1.00
H1754  H     0.88611   0.08767   0.99410   0.00000  Uiso   1.00
H1755  H     0.88365   0.06224   0.71559   0.00000  Uiso   1.00
H1756  H     0.82826   0.06517   0.67449   0.00000  Uiso   1.00
C1757  C     0.76540   0.11674   0.70940   0.00000  Uiso   1.00
N1758  N     0.73608   0.09769   0.72709   0.00000  Uiso   1.00
C1759  C     0.89734   0.22114   0.95706   0.00000  Uiso   1.00
N1760  N     0.92447   0.24357   0.94060   0.00000  Uiso   1.00
C1761  C     0.77476   0.10997   0.94467   0.00000  Uiso   1.00
N1762  N     0.75391   0.08455   0.92221   0.00000  Uiso   1.00
C1763  C     0.89031   0.22549   0.72016   0.00000  Uiso   1.00
N1764  N     0.91298   0.25153   0.74003   0.00000  Uiso   1.00
C1765  C     0.16620   0.42050   0.83371   0.00000  Uiso   1.00
C1766  C     0.16581   0.57899   0.83306   0.00000  Uiso   1.00
C1767  C     0.06805   0.50127   0.82138   0.00000  Uiso   1.00
C1768  C     0.26494   0.49950   0.84495   0.00000  Uiso   1.00
C1769  C     0.01286   0.50605   0.81539   0.00000  Uiso   1.00
C1770  C     0.31912   0.49289   0.85005   0.00000  Uiso   1.00
C1771  C     0.17593   0.35339   0.79568   0.00000  Uiso   1.00
C1772  C     0.13989   0.64344   0.86656   0.00000  Uiso   1.00
C1773  C     0.19250   0.64698   0.80546   0.00000  Uiso   1.00
C1774  C     0.15099   0.35185   0.87272   0.00000  Uiso   1.00
C1775  C     0.16301   0.62331   0.83280   0.00000  Uiso   1.00
C1776  C     0.16513   0.37522   0.83446   0.00000  Uiso   1.00
C1777  C     0.13486   0.47469   0.68819   0.00000  Uiso   1.00
C1778  C     0.19705   0.52663   0.97815   0.00000  Uiso   1.00
C1779  C     0.13574   0.47410   0.97215   0.00000  Uiso   1.00
C1780  C     0.19607   0.52714   0.69405   0.00000  Uiso   1.00
Cu1781 Cu    0.16667   0.50001   0.88022   0.00000  Uiso   1.00
Cu1782 Cu    0.16667   0.49999   0.78645   0.00000  Uiso   1.00
N1783  N     0.16668   0.50001   0.95069   0.00000  Uiso   1.00
N1784  N     0.16665   0.49999   0.71597   0.00000  Uiso   1.00
O1785  O     0.16666   0.43989   0.87291   0.00000  Uiso   1.00
O1786  O     0.16667   0.56011   0.79375   0.00000  Uiso   1.00
O1787  O     0.16666   0.43988   0.79372   0.00000  Uiso   1.00
O1788  O     0.16667   0.56012   0.87294   0.00000  Uiso   1.00
O1789  O     0.09161   0.50000   0.86379   0.00000  Uiso   1.00
O1790  O     0.24172   0.50000   0.80288   0.00000  Uiso   1.00
O1791  O     0.09161   0.49999   0.78460   0.00000  Uiso   1.00
O1792  O     0.24172   0.50001   0.88207   0.00000  Uiso   1.00
O1793  O     0.32144   0.53000   0.77944   0.00000  Uiso   1.00
C1794  C     0.00791   0.53110   0.73648   0.00000  Uiso   1.00
H1795  H     0.30967   0.53230   0.70813   0.00000  Uiso   1.00
H1796  H     0.02553   0.50266   0.72850   0.00000  Uiso   1.00
C1797  C     0.04013   0.57020   0.73260   0.00000  Uiso   1.00
H1798  H     0.01700   0.59707   0.73579   0.00000  Uiso   1.00
H1799  H     0.07150   0.57170   0.76129   0.00000  Uiso   1.00
C1800  C     0.06070   0.57321   0.68607   0.00000  Uiso   1.00
H1801  H     0.08343   0.54654   0.68136   0.00000  Uiso   1.00
H1802  H     0.08474   0.60133   0.68509   0.00000  Uiso   1.00
H1803  H     0.02949   0.57455   0.99044   0.00000  Uiso   1.00
O1804  O     0.00928   0.47549   0.89097   0.00000  Uiso   1.00
C1805  C     0.31677   0.43992   0.90561   0.00000  Uiso   1.00
H1806  H     0.00104   0.41283   0.89384   0.00000  Uiso   1.00
H1807  H     0.27724   0.43544   0.89028   0.00000  Uiso   1.00
C1808  C     0.31943   0.43967   0.95889   0.00000  Uiso   1.00
H1809  H     0.01623   0.46107   0.97437   0.00000  Uiso   1.00
H1810  H     0.28420   0.45150   0.96827   0.00000  Uiso   1.00
C1811  C     0.32873   0.39713   0.98042   0.00000  Uiso   1.00
H1812  H     0.30968   0.37274   0.95822   0.00000  Uiso   1.00
H1813  H     0.31589   0.39534   0.68200   0.00000  Uiso   1.00
H1814  H     0.03569   0.39069   0.98466   0.00000  Uiso   1.00
C1815  C     0.13900   0.35452   0.75512   0.00000  Uiso   1.00
N1816  N     0.10879   0.35343   0.72290   0.00000  Uiso   1.00
C1817  C     0.11071   0.62196   0.89836   0.00000  Uiso   1.00
N1818  N     0.08706   0.60465   0.92352   0.00000  Uiso   1.00
O1819  O     0.24270   0.63682   0.80959   0.00000  Uiso   1.00
C1820  C     0.27331   0.66372   0.78587   0.00000  Uiso   1.00
H1821  H     0.25332   0.34339   0.75351   0.00000  Uiso   1.00
H1822  H     0.30349   0.64559   0.77470   0.00000  Uiso   1.00
C1823  C     0.29832   0.36335   0.81840   0.00000  Uiso   1.00
H1824  H     0.26970   0.38255   0.83045   0.00000  Uiso   1.00
H1825  H     0.31956   0.34858   0.84935   0.00000  Uiso   1.00
C1826  C     0.00071   0.39039   0.79356   0.00000  Uiso   1.00
H1827  H     0.02837   0.37149   0.77933   0.00000  Uiso   1.00
H1828  H     0.02149   0.41233   0.81818   0.00000  Uiso   1.00
H1829  H     0.31273   0.40787   0.76483   0.00000  Uiso   1.00
O1830  O     0.15790   0.36634   0.91752   0.00000  Uiso   1.00
C1831  C     0.20765   0.35850   0.93670   0.00000  Uiso   1.00
H1832  H     0.23214   0.38403   0.92652   0.00000  Uiso   1.00
H1833  H     0.22199   0.66296   0.92432   0.00000  Uiso   1.00
C1834  C     0.21175   0.35454   0.98969   0.00000  Uiso   1.00
H1835  H     0.18456   0.66397   0.99951   0.00000  Uiso   1.00
H1836  H     0.24961   0.34440   0.67019   0.00000  Uiso   1.00
C1837  C     0.20224   0.39487   0.67815   0.00000  Uiso   1.00
H1838  H     0.21945   0.42100   0.99410   0.00000  Uiso   1.00
H1839  H     0.21699   0.39558   0.71559   0.00000  Uiso   1.00
H1840  H     0.16160   0.39850   0.67449   0.00000  Uiso   1.00
C1841  C     0.09873   0.45007   0.70940   0.00000  Uiso   1.00
N1842  N     0.06941   0.43102   0.72709   0.00000  Uiso   1.00
C1843  C     0.23067   0.55448   0.95706   0.00000  Uiso   1.00
N1844  N     0.25781   0.57690   0.94060   0.00000  Uiso   1.00
C1845  C     0.10809   0.44331   0.94467   0.00000  Uiso   1.00
N1846  N     0.08724   0.41788   0.92221   0.00000  Uiso   1.00
C1847  C     0.22364   0.55883   0.72016   0.00000  Uiso   1.00
N1848  N     0.24631   0.58487   0.74003   0.00000  Uiso   1.00
C1849  C     0.49954   0.42050   0.83371   0.00000  Uiso   1.00
C1850  C     0.49915   0.57899   0.83306   0.00000  Uiso   1.00
C1851  C     0.40139   0.50127   0.82138   0.00000  Uiso   1.00
C1852  C     0.59827   0.49950   0.84495   0.00000  Uiso   1.00
C1853  C     0.34619   0.50605   0.81539   0.00000  Uiso   1.00
C1854  C     0.65246   0.49289   0.85005   0.00000  Uiso   1.00
C1855  C     0.50926   0.35339   0.79568   0.00000  Uiso   1.00
C1856  C     0.47323   0.64344   0.86656   0.00000  Uiso   1.00
C1857  C     0.52583   0.64698   0.80546   0.00000  Uiso   1.00
C1858  C     0.48432   0.35185   0.87272   0.00000  Uiso   1.00
C1859  C     0.49634   0.62331   0.83280   0.00000  Uiso   1.00
C1860  C     0.49846   0.37522   0.83446   0.00000  Uiso   1.00
C1861  C     0.46819   0.47469   0.68819   0.00000  Uiso   1.00
C1862  C     0.53038   0.52663   0.97815   0.00000  Uiso   1.00
C1863  C     0.46907   0.47410   0.97215   0.00000  Uiso   1.00
C1864  C     0.52941   0.52714   0.69405   0.00000  Uiso   1.00
Cu1865 Cu    0.50000   0.50001   0.88022   0.00000  Uiso   1.00
Cu1866 Cu    0.50000   0.49999   0.78645   0.00000  Uiso   1.00
N1867  N     0.50001   0.50001   0.95069   0.00000  Uiso   1.00
N1868  N     0.49999   0.49999   0.71597   0.00000  Uiso   1.00
O1869  O     0.50000   0.43989   0.87291   0.00000  Uiso   1.00
O1870  O     0.50000   0.56011   0.79375   0.00000  Uiso   1.00
O1871  O     0.50000   0.43988   0.79372   0.00000  Uiso   1.00
O1872  O     0.50000   0.56012   0.87294   0.00000  Uiso   1.00
O1873  O     0.42495   0.50000   0.86379   0.00000  Uiso   1.00
O1874  O     0.57505   0.50000   0.80288   0.00000  Uiso   1.00
O1875  O     0.42494   0.49999   0.78460   0.00000  Uiso   1.00
O1876  O     0.57506   0.50001   0.88207   0.00000  Uiso   1.00
O1877  O     0.65477   0.53000   0.77944   0.00000  Uiso   1.00
C1878  C     0.34125   0.53110   0.73648   0.00000  Uiso   1.00
H1879  H     0.64300   0.53230   0.70813   0.00000  Uiso   1.00
H1880  H     0.35886   0.50266   0.72850   0.00000  Uiso   1.00
C1881  C     0.37346   0.57020   0.73260   0.00000  Uiso   1.00
H1882  H     0.35033   0.59707   0.73579   0.00000  Uiso   1.00
H1883  H     0.40483   0.57170   0.76129   0.00000  Uiso   1.00
C1884  C     0.39403   0.57321   0.68607   0.00000  Uiso   1.00
H1885  H     0.41677   0.54654   0.68136   0.00000  Uiso   1.00
H1886  H     0.41807   0.60133   0.68509   0.00000  Uiso   1.00
H1887  H     0.36282   0.57455   0.99044   0.00000  Uiso   1.00
O1888  O     0.34261   0.47549   0.89097   0.00000  Uiso   1.00
C1889  C     0.65010   0.43992   0.90561   0.00000  Uiso   1.00
H1890  H     0.33438   0.41283   0.89384   0.00000  Uiso   1.00
H1891  H     0.61058   0.43544   0.89028   0.00000  Uiso   1.00
C1892  C     0.65276   0.43967   0.95889   0.00000  Uiso   1.00
H1893  H     0.34957   0.46107   0.97437   0.00000  Uiso   1.00
H1894  H     0.61753   0.45150   0.96827   0.00000  Uiso   1.00
C1895  C     0.66206   0.39713   0.98042   0.00000  Uiso   1.00
H1896  H     0.64301   0.37274   0.95822   0.00000  Uiso   1.00
H1897  H     0.64922   0.39534   0.68200   0.00000  Uiso   1.00
H1898  H     0.36902   0.39069   0.98466   0.00000  Uiso   1.00
C1899  C     0.47233   0.35452   0.75512   0.00000  Uiso   1.00
N1900  N     0.44213   0.35343   0.72290   0.00000  Uiso   1.00
C1901  C     0.44404   0.62196   0.89836   0.00000  Uiso   1.00
N1902  N     0.42039   0.60465   0.92352   0.00000  Uiso   1.00
O1903  O     0.57603   0.63682   0.80959   0.00000  Uiso   1.00
C1904  C     0.60665   0.66372   0.78587   0.00000  Uiso   1.00
H1905  H     0.58665   0.34339   0.75351   0.00000  Uiso   1.00
H1906  H     0.63683   0.64559   0.77470   0.00000  Uiso   1.00
C1907  C     0.63166   0.36335   0.81840   0.00000  Uiso   1.00
H1908  H     0.60303   0.38255   0.83045   0.00000  Uiso   1.00
H1909  H     0.65290   0.34858   0.84935   0.00000  Uiso   1.00
C1910  C     0.33405   0.39039   0.79356   0.00000  Uiso   1.00
H1911  H     0.36171   0.37149   0.77933   0.00000  Uiso   1.00
H1912  H     0.35483   0.41233   0.81818   0.00000  Uiso   1.00
H1913  H     0.64607   0.40787   0.76483   0.00000  Uiso   1.00
O1914  O     0.49123   0.36634   0.91752   0.00000  Uiso   1.00
C1915  C     0.54099   0.35850   0.93670   0.00000  Uiso   1.00
H1916  H     0.56547   0.38403   0.92652   0.00000  Uiso   1.00
H1917  H     0.55533   0.66296   0.92432   0.00000  Uiso   1.00
C1918  C     0.54508   0.35454   0.98969   0.00000  Uiso   1.00
H1919  H     0.51789   0.66397   0.99951   0.00000  Uiso   1.00
H1920  H     0.58294   0.34440   0.67019   0.00000  Uiso   1.00
C1921  C     0.53557   0.39487   0.67815   0.00000  Uiso   1.00
H1922  H     0.55278   0.42100   0.99410   0.00000  Uiso   1.00
H1923  H     0.55032   0.39558   0.71559   0.00000  Uiso   1.00
H1924  H     0.49493   0.39850   0.67449   0.00000  Uiso   1.00
C1925  C     0.43207   0.45007   0.70940   0.00000  Uiso   1.00
N1926  N     0.40275   0.43102   0.72709   0.00000  Uiso   1.00
C1927  C     0.56401   0.55448   0.95706   0.00000  Uiso   1.00
N1928  N     0.59114   0.57690   0.94060   0.00000  Uiso   1.00
C1929  C     0.44142   0.44331   0.94467   0.00000  Uiso   1.00
N1930  N     0.42057   0.41788   0.92221   0.00000  Uiso   1.00
C1931  C     0.55697   0.55883   0.72016   0.00000  Uiso   1.00
N1932  N     0.57965   0.58487   0.74003   0.00000  Uiso   1.00
C1933  C     0.83287   0.42050   0.83371   0.00000  Uiso   1.00
C1934  C     0.83248   0.57899   0.83306   0.00000  Uiso   1.00
C1935  C     0.73472   0.50127   0.82138   0.00000  Uiso   1.00
C1936  C     0.93160   0.49950   0.84495   0.00000  Uiso   1.00
C1937  C     0.67952   0.50605   0.81539   0.00000  Uiso   1.00
C1938  C     0.98579   0.49289   0.85005   0.00000  Uiso   1.00
C1939  C     0.84260   0.35339   0.79568   0.00000  Uiso   1.00
C1940  C     0.80656   0.64344   0.86656   0.00000  Uiso   1.00
C1941  C     0.85917   0.64698   0.80546   0.00000  Uiso   1.00
C1942  C     0.81765   0.35185   0.87272   0.00000  Uiso   1.00
C1943  C     0.82967   0.62331   0.83280   0.00000  Uiso   1.00
C1944  C     0.83179   0.37522   0.83446   0.00000  Uiso   1.00
C1945  C     0.80153   0.47469   0.68819   0.00000  Uiso   1.00
C1946  C     0.86372   0.52663   0.97815   0.00000  Uiso   1.00
C1947  C     0.80240   0.47410   0.97215   0.00000  Uiso   1.00
C1948  C     0.86274   0.52714   0.69405   0.00000  Uiso   1.00
Cu1949 Cu    0.83333   0.50001   0.88022   0.00000  Uiso   1.00
Cu1950 Cu    0.83333   0.49999   0.78645   0.00000  Uiso   1.00
N1951  N     0.83335   0.50001   0.95069   0.00000  Uiso   1.00
N1952  N     0.83332   0.49999   0.71597   0.00000  Uiso   1.00
O1953  O     0.83333   0.43989   0.87291   0.00000  Uiso   1.00
O1954  O     0.83334   0.56011   0.79375   0.00000  Uiso   1.00
O1955  O     0.83333   0.43988   0.79372   0.00000  Uiso   1.00
O1956  O     0.83334   0.56012   0.87294   0.00000  Uiso   1.00
O1957  O     0.75828   0.50000   0.86379   0.00000  Uiso   1.00
O1958  O     0.90839   0.50000   0.80288   0.00000  Uiso   1.00
O1959  O     0.75828   0.49999   0.78460   0.00000  Uiso   1.00
O1960  O     0.90839   0.50001   0.88207   0.00000  Uiso   1.00
O1961  O     0.98811   0.53000   0.77944   0.00000  Uiso   1.00
C1962  C     0.67458   0.53110   0.73648   0.00000  Uiso   1.00
H1963  H     0.97633   0.53230   0.70813   0.00000  Uiso   1.00
H1964  H     0.69220   0.50266   0.72850   0.00000  Uiso   1.00
C1965  C     0.70679   0.57020   0.73260   0.00000  Uiso   1.00
H1966  H     0.68367   0.59707   0.73579   0.00000  Uiso   1.00
H1967  H     0.73817   0.57170   0.76129   0.00000  Uiso   1.00
C1968  C     0.72736   0.57321   0.68607   0.00000  Uiso   1.00
H1969  H     0.75010   0.54654   0.68136   0.00000  Uiso   1.00
H1970  H     0.75141   0.60133   0.68509   0.00000  Uiso   1.00
H1971  H     0.69616   0.57455   0.99044   0.00000  Uiso   1.00
O1972  O     0.67595   0.47549   0.89097   0.00000  Uiso   1.00
C1973  C     0.98344   0.43992   0.90561   0.00000  Uiso   1.00
H1974  H     0.66771   0.41283   0.89384   0.00000  Uiso   1.00
H1975  H     0.94391   0.43544   0.89028   0.00000  Uiso   1.00
C1976  C     0.98609   0.43967   0.95889   0.00000  Uiso   1.00
H1977  H     0.68290   0.46107   0.97437   0.00000  Uiso   1.00
H1978  H     0.95086   0.45150   0.96827   0.00000  Uiso   1.00
C1979  C     0.99539   0.39713   0.98042   0.00000  Uiso   1.00
H1980  H     0.97634   0.37274   0.95822   0.00000  Uiso   1.00
H1981  H     0.98256   0.39534   0.68200   0.00000  Uiso   1.00
H1982  H     0.70235   0.39069   0.98466   0.00000  Uiso   1.00
C1983  C     0.80567   0.35452   0.75512   0.00000  Uiso   1.00
N1984  N     0.77546   0.35343   0.72290   0.00000  Uiso   1.00
C1985  C     0.77738   0.62196   0.89836   0.00000  Uiso   1.00
N1986  N     0.75372   0.60465   0.92352   0.00000  Uiso   1.00
O1987  O     0.90936   0.63682   0.80959   0.00000  Uiso   1.00
C1988  C     0.93998   0.66372   0.78587   0.00000  Uiso   1.00
H1989  H     0.91999   0.34339   0.75351   0.00000  Uiso   1.00
H1990  H     0.97016   0.64559   0.77470   0.00000  Uiso   1.00
C1991  C     0.96499   0.36335   0.81840   0.00000  Uiso   1.00
H1992  H     0.93636   0.38255   0.83045   0.00000  Uiso   1.00
H1993  H     0.98623   0.34858   0.84935   0.00000  Uiso   1.00
C1994  C     0.66738   0.39039   0.79356   0.00000  Uiso   1.00
H1995  H     0.69504   0.37149   0.77933   0.00000  Uiso   1.00
H1996  H     0.68816   0.41233   0.81818   0.00000  Uiso   1.00
H1997  H     0.97940   0.40787   0.76483   0.00000  Uiso   1.00
O1998  O     0.82456   0.36634   0.91752   0.00000  Uiso   1.00
C1999  C     0.87432   0.35850   0.93670   0.00000  Uiso   1.00
H2000  H     0.89881   0.38403   0.92652   0.00000  Uiso   1.00
H2001  H     0.88866   0.66296   0.92432   0.00000  Uiso   1.00
C2002  C     0.87841   0.35454   0.98969   0.00000  Uiso   1.00
H2003  H     0.85123   0.66397   0.99951   0.00000  Uiso   1.00
H2004  H     0.91627   0.34440   0.67019   0.00000  Uiso   1.00
C2005  C     0.86890   0.39487   0.67815   0.00000  Uiso   1.00
H2006  H     0.88611   0.42100   0.99410   0.00000  Uiso   1.00
H2007  H     0.88365   0.39558   0.71559   0.00000  Uiso   1.00
H2008  H     0.82826   0.39850   0.67449   0.00000  Uiso   1.00
C2009  C     0.76540   0.45007   0.70940   0.00000  Uiso   1.00
N2010  N     0.73608   0.43102   0.72709   0.00000  Uiso   1.00
C2011  C     0.89734   0.55448   0.95706   0.00000  Uiso   1.00
N2012  N     0.92447   0.57690   0.94060   0.00000  Uiso   1.00
C2013  C     0.77476   0.44331   0.94467   0.00000  Uiso   1.00
N2014  N     0.75391   0.41788   0.92221   0.00000  Uiso   1.00
C2015  C     0.89031   0.55883   0.72016   0.00000  Uiso   1.00
N2016  N     0.91298   0.58487   0.74003   0.00000  Uiso   1.00
C2017  C     0.16620   0.75383   0.83371   0.00000  Uiso   1.00
C2018  C     0.16581   0.91233   0.83306   0.00000  Uiso   1.00
C2019  C     0.06805   0.83460   0.82138   0.00000  Uiso   1.00
C2020  C     0.26494   0.83283   0.84495   0.00000  Uiso   1.00
C2021  C     0.01286   0.83938   0.81539   0.00000  Uiso   1.00
C2022  C     0.31912   0.82622   0.85005   0.00000  Uiso   1.00
C2023  C     0.17593   0.68673   0.79568   0.00000  Uiso   1.00
C2024  C     0.13989   0.97678   0.86656   0.00000  Uiso   1.00
C2025  C     0.19250   0.98031   0.80546   0.00000  Uiso   1.00
C2026  C     0.15099   0.68518   0.87272   0.00000  Uiso   1.00
C2027  C     0.16301   0.95664   0.83280   0.00000  Uiso   1.00
C2028  C     0.16513   0.70856   0.83446   0.00000  Uiso   1.00
C2029  C     0.13486   0.80802   0.68819   0.00000  Uiso   1.00
C2030  C     0.19705   0.85996   0.97815   0.00000  Uiso   1.00
C2031  C     0.13574   0.80743   0.97215   0.00000  Uiso   1.00
C2032  C     0.19607   0.86047   0.69405   0.00000  Uiso   1.00
Cu2033 Cu    0.16667   0.83334   0.88022   0.00000  Uiso   1.00
Cu2034 Cu    0.16667   0.83333   0.78645   0.00000  Uiso   1.00
N2035  N     0.16668   0.83334   0.95069   0.00000  Uiso   1.00
N2036  N     0.16665   0.83332   0.71597   0.00000  Uiso   1.00
O2037  O     0.16666   0.77322   0.87291   0.00000  Uiso   1.00
O2038  O     0.16667   0.89345   0.79375   0.00000  Uiso   1.00
O2039  O     0.16666   0.77321   0.79372   0.00000  Uiso   1.00
O2040  O     0.16667   0.89346   0.87294   0.00000  Uiso   1.00
O2041  O     0.09161   0.83334   0.86379   0.00000  Uiso   1.00
O2042  O     0.24172   0.83333   0.80288   0.00000  Uiso   1.00
O2043  O     0.09161   0.83333   0.78460   0.00000  Uiso   1.00
O2044  O     0.24172   0.83334   0.88207   0.00000  Uiso   1.00
O2045  O     0.32144   0.86334   0.77944   0.00000  Uiso   1.00
C2046  C     0.00791   0.86444   0.73648   0.00000  Uiso   1.00
H2047  H     0.30967   0.86564   0.70813   0.00000  Uiso   1.00
H2048  H     0.02553   0.83599   0.72850   0.00000  Uiso   1.00
C2049  C     0.04013   0.90354   0.73260   0.00000  Uiso   1.00
H2050  H     0.01700   0.93040   0.73579   0.00000  Uiso   1.00
H2051  H     0.07150   0.90504   0.76129   0.00000  Uiso   1.00
C2052  C     0.06070   0.90655   0.68607   0.00000  Uiso   1.00
H2053  H     0.08343   0.87988   0.68136   0.00000  Uiso   1.00
H2054  H     0.08474   0.93467   0.68509   0.00000  Uiso   1.00
H2055  H     0.02949   0.90789   0.99044   0.00000  Uiso   1.00
O2056  O     0.00928   0.80882   0.89097   0.00000  Uiso   1.00
C2057  C     0.31677   0.77326   0.90561   0.00000  Uiso   1.00
H2058  H     0.00104   0.74616   0.89384   0.00000  Uiso   1.00
H2059  H     0.27724   0.76878   0.89028   0.00000  Uiso   1.00
C2060  C     0.31943   0.77301   0.95889   0.00000  Uiso   1.00
H2061  H     0.01623   0.79440   0.97437   0.00000  Uiso   1.00
H2062  H     0.28420   0.78483   0.96827   0.00000  Uiso   1.00
C2063  C     0.32873   0.73046   0.98042   0.00000  Uiso   1.00
H2064  H     0.30968   0.70608   0.95822   0.00000  Uiso   1.00
H2065  H     0.31589   0.72868   0.68200   0.00000  Uiso   1.00
H2066  H     0.03569   0.72402   0.98466   0.00000  Uiso   1.00
C2067  C     0.13900   0.68786   0.75512   0.00000  Uiso   1.00
N2068  N     0.10879   0.68677   0.72290   0.00000  Uiso   1.00
C2069  C     0.11071   0.95529   0.89836   0.00000  Uiso   1.00
N2070  N     0.08706   0.93798   0.92352   0.00000  Uiso   1.00
O2071  O     0.24270   0.97015   0.80959   0.00000  Uiso   1.00
C2072  C     0.27331   0.99705   0.78587   0.00000  Uiso   1.00
H2073  H     0.25332   0.67673   0.75351   0.00000  Uiso   1.00
H2074  H     0.30349   0.97893   0.77470   0.00000  Uiso   1.00
C2075  C     0.29832   0.69668   0.81840   0.00000  Uiso   1.00
H2076  H     0.26970   0.71588   0.83045   0.00000  Uiso   1.00
H2077  H     0.31956   0.68191   0.84935   0.00000  Uiso   1.00
C2078  C     0.00071   0.72373   0.79356   0.00000  Uiso   1.00
H2079  H     0.02837   0.70482   0.77933   0.00000  Uiso   1.00
H2080  H     0.02149   0.74566   0.81818   0.00000  Uiso   1.00
H2081  H     0.31273   0.74120   0.76483   0.00000  Uiso   1.00
O2082  O     0.15790   0.69967   0.91752   0.00000  Uiso   1.00
C2083  C     0.20765   0.69184   0.93670   0.00000  Uiso   1.00
H2084  H     0.23214   0.71736   0.92652   0.00000  Uiso   1.00
H2085  H     0.22199   0.99630   0.92432   0.00000  Uiso   1.00
C2086  C     0.21175   0.68787   0.98969   0.00000  Uiso   1.00
H2087  H     0.18456   0.99731   0.99951   0.00000  Uiso   1.00
H2088  H     0.24961   0.67773   0.67019   0.00000  Uiso   1.00
C2089  C     0.20224   0.72820   0.67815   0.00000  Uiso   1.00
H2090  H     0.21945   0.75433   0.99410   0.00000  Uiso   1.00
H2091  H     0.21699   0.72891   0.71559   0.00000  Uiso   1.00
H2092  H     0.16160   0.73183   0.67449   0.00000  Uiso   1.00
C2093  C     0.09873   0.78341   0.70940   0.00000  Uiso   1.00
N2094  N     0.06941   0.76436   0.72709   0.00000  Uiso   1.00
C2095  C     0.23067   0.88781   0.95706   0.00000  Uiso   1.00
N2096  N     0.25781   0.91024   0.94060   0.00000  Uiso   1.00
C2097  C     0.10809   0.77664   0.94467   0.00000  Uiso   1.00
N2098  N     0.08724   0.75121   0.92221   0.00000  Uiso   1.00
C2099  C     0.22364   0.89216   0.72016   0.00000  Uiso   1.00
N2100  N     0.24631   0.91820   0.74003   0.00000  Uiso   1.00
C2101  C     0.49954   0.75383   0.83371   0.00000  Uiso   1.00
C2102  C     0.49915   0.91233   0.83306   0.00000  Uiso   1.00
C2103  C     0.40139   0.83460   0.82138   0.00000  Uiso   1.00
C2104  C     0.59827   0.83283   0.84495   0.00000  Uiso   1.00
C2105  C     0.34619   0.83938   0.81539   0.00000  Uiso   1.00
C2106  C     0.65246   0.82622   0.85005   0.00000  Uiso   1.00
C2107  C     0.50926   0.68673   0.79568   0.00000  Uiso   1.00
C2108  C     0.47323   0.97678   0.86656   0.00000  Uiso   1.00
C2109  C     0.52583   0.98031   0.80546   0.00000  Uiso   1.00
C2110  C     0.48432   0.68518   0.87272   0.00000  Uiso   1.00
C2111  C     0.49634   0.95664   0.83280   0.00000  Uiso   1.00
C2112  C     0.49846   0.70856   0.83446   0.00000  Uiso   1.00
C2113  C     0.46819   0.80802   0.68819   0.00000  Uiso   1.00
C2114  C     0.53038   0.85996   0.97815   0.00000  Uiso   1.00
C2115  C     0.46907   0.80743   0.97215   0.00000  Uiso   1.00
C2116  C     0.52941   0.86047   0.69405   0.00000  Uiso   1.00
Cu2117 Cu    0.50000   0.83334   0.88022   0.00000  Uiso   1.00
Cu2118 Cu    0.50000   0.83333   0.78645   0.00000  Uiso   1.00
N2119  N     0.50001   0.83334   0.95069   0.00000  Uiso   1.00
N2120  N     0.49999   0.83332   0.71597   0.00000  Uiso   1.00
O2121  O     0.50000   0.77322   0.87291   0.00000  Uiso   1.00
O2122  O     0.50000   0.89345   0.79375   0.00000  Uiso   1.00
O2123  O     0.50000   0.77321   0.79372   0.00000  Uiso   1.00
O2124  O     0.50000   0.89346   0.87294   0.00000  Uiso   1.00
O2125  O     0.42495   0.83334   0.86379   0.00000  Uiso   1.00
O2126  O     0.57505   0.83333   0.80288   0.00000  Uiso   1.00
O2127  O     0.42494   0.83333   0.78460   0.00000  Uiso   1.00
O2128  O     0.57506   0.83334   0.88207   0.00000  Uiso   1.00
O2129  O     0.65477   0.86334   0.77944   0.00000  Uiso   1.00
C2130  C     0.34125   0.86444   0.73648   0.00000  Uiso   1.00
H2131  H     0.64300   0.86564   0.70813   0.00000  Uiso   1.00
H2132  H     0.35886   0.83599   0.72850   0.00000  Uiso   1.00
C2133  C     0.37346   0.90354   0.73260   0.00000  Uiso   1.00
H2134  H     0.35033   0.93040   0.73579   0.00000  Uiso   1.00
H2135  H     0.40483   0.90504   0.76129   0.00000  Uiso   1.00
C2136  C     0.39403   0.90655   0.68607   0.00000  Uiso   1.00
H2137  H     0.41677   0.87988   0.68136   0.00000  Uiso   1.00
H2138  H     0.41807   0.93467   0.68509   0.00000  Uiso   1.00
H2139  H     0.36282   0.90789   0.99044   0.00000  Uiso   1.00
O2140  O     0.34261   0.80882   0.89097   0.00000  Uiso   1.00
C2141  C     0.65010   0.77326   0.90561   0.00000  Uiso   1.00
H2142  H     0.33438   0.74616   0.89384   0.00000  Uiso   1.00
H2143  H     0.61058   0.76878   0.89028   0.00000  Uiso   1.00
C2144  C     0.65276   0.77301   0.95889   0.00000  Uiso   1.00
H2145  H     0.34957   0.79440   0.97437   0.00000  Uiso   1.00
H2146  H     0.61753   0.78483   0.96827   0.00000  Uiso   1.00
C2147  C     0.66206   0.73046   0.98042   0.00000  Uiso   1.00
H2148  H     0.64301   0.70608   0.95822   0.00000  Uiso   1.00
H2149  H     0.64922   0.72868   0.68200   0.00000  Uiso   1.00
H2150  H     0.36902   0.72402   0.98466   0.00000  Uiso   1.00
C2151  C     0.47233   0.68786   0.75512   0.00000  Uiso   1.00
N2152  N     0.44213   0.68677   0.72290   0.00000  Uiso   1.00
C2153  C     0.44404   0.95529   0.89836   0.00000  Uiso   1.00
N2154  N     0.42039   0.93798   0.92352   0.00000  Uiso   1.00
O2155  O     0.57603   0.97015   0.80959   0.00000  Uiso   1.00
C2156  C     0.60665   0.99705   0.78587   0.00000  Uiso   1.00
H2157  H     0.58665   0.67673   0.75351   0.00000  Uiso   1.00
H2158  H     0.63683   0.97893   0.77470   0.00000  Uiso   1.00
C2159  C     0.63166   0.69668   0.81840   0.00000  Uiso   1.00
H2160  H     0.60303   0.71588   0.83045   0.00000  Uiso   1.00
H2161  H     0.65290   0.68191   0.84935   0.00000  Uiso   1.00
C2162  C     0.33405   0.72373   0.79356   0.00000  Uiso   1.00
H2163  H     0.36171   0.70482   0.77933   0.00000  Uiso   1.00
H2164  H     0.35483   0.74566   0.81818   0.00000  Uiso   1.00
H2165  H     0.64607   0.74120   0.76483   0.00000  Uiso   1.00
O2166  O     0.49123   0.69967   0.91752   0.00000  Uiso   1.00
C2167  C     0.54099   0.69184   0.93670   0.00000  Uiso   1.00
H2168  H     0.56547   0.71736   0.92652   0.00000  Uiso   1.00
H2169  H     0.55533   0.99630   0.92432   0.00000  Uiso   1.00
C2170  C     0.54508   0.68787   0.98969   0.00000  Uiso   1.00
H2171  H     0.51789   0.99731   0.99951   0.00000  Uiso   1.00
H2172  H     0.58294   0.67773   0.67019   0.00000  Uiso   1.00
C2173  C     0.53557   0.72820   0.67815   0.00000  Uiso   1.00
H2174  H     0.55278   0.75433   0.99410   0.00000  Uiso   1.00
H2175  H     0.55032   0.72891   0.71559   0.00000  Uiso   1.00
H2176  H     0.49493   0.73183   0.67449   0.00000  Uiso   1.00
C2177  C     0.43207   0.78341   0.70940   0.00000  Uiso   1.00
N2178  N     0.40275   0.76436   0.72709   0.00000  Uiso   1.00
C2179  C     0.56401   0.88781   0.95706   0.00000  Uiso   1.00
N2180  N     0.59114   0.91024   0.94060   0.00000  Uiso   1.00
C2181  C     0.44142   0.77664   0.94467   0.00000  Uiso   1.00
N2182  N     0.42057   0.75121   0.92221   0.00000  Uiso   1.00
C2183  C     0.55697   0.89216   0.72016   0.00000  Uiso   1.00
N2184  N     0.57965   0.91820   0.74003   0.00000  Uiso   1.00
C2185  C     0.83287   0.75383   0.83371   0.00000  Uiso   1.00
C2186  C     0.83248   0.91233   0.83306   0.00000  Uiso   1.00
C2187  C     0.73472   0.83460   0.82138   0.00000  Uiso   1.00
C2188  C     0.93160   0.83283   0.84495   0.00000  Uiso   1.00
C2189  C     0.67952   0.83938   0.81539   0.00000  Uiso   1.00
C2190  C     0.98579   0.82622   0.85005   0.00000  Uiso   1.00
C2191  C     0.84260   0.68673   0.79568   0.00000  Uiso   1.00
C2192  C     0.80656   0.97678   0.86656   0.00000  Uiso   1.00
C2193  C     0.85917   0.98031   0.80546   0.00000  Uiso   1.00
C2194  C     0.81765   0.68518   0.87272   0.00000  Uiso   1.00
C2195  C     0.82967   0.95664   0.83280   0.00000  Uiso   1.00
C2196  C     0.83179   0.70856   0.83446   0.00000  Uiso   1.00
C2197  C     0.80153   0.80802   0.68819   0.00000  Uiso   1.00
C2198  C     0.86372   0.85996   0.97815   0.00000  Uiso   1.00
C2199  C     0.80240   0.80743   0.97215   0.00000  Uiso   1.00
C2200  C     0.86274   0.86047   0.69405   0.00000  Uiso   1.00
Cu2201 Cu    0.83333   0.83334   0.88022   0.00000  Uiso   1.00
Cu2202 Cu    0.83333   0.83333   0.78645   0.00000  Uiso   1.00
N2203  N     0.83335   0.83334   0.95069   0.00000  Uiso   1.00
N2204  N     0.83332   0.83332   0.71597   0.00000  Uiso   1.00
O2205  O     0.83333   0.77322   0.87291   0.00000  Uiso   1.00
O2206  O     0.83334   0.89345   0.79375   0.00000  Uiso   1.00
O2207  O     0.83333   0.77321   0.79372   0.00000  Uiso   1.00
O2208  O     0.83334   0.89346   0.87294   0.00000  Uiso   1.00
O2209  O     0.75828   0.83334   0.86379   0.00000  Uiso   1.00
O2210  O     0.90839   0.83333   0.80288   0.00000  Uiso   1.00
O2211  O     0.75828   0.83333   0.78460   0.00000  Uiso   1.00
O2212  O     0.90839   0.83334   0.88207   0.00000  Uiso   1.00
O2213  O     0.98811   0.86334   0.77944   0.00000  Uiso   1.00
C2214  C     0.67458   0.86444   0.73648   0.00000  Uiso   1.00
H2215  H     0.97633   0.86564   0.70813   0.00000  Uiso   1.00
H2216  H     0.69220   0.83599   0.72850   0.00000  Uiso   1.00
C2217  C     0.70679   0.90354   0.73260   0.00000  Uiso   1.00
H2218  H     0.68367   0.93040   0.73579   0.00000  Uiso   1.00
H2219  H     0.73817   0.90504   0.76129   0.00000  Uiso   1.00
C2220  C     0.72736   0.90655   0.68607   0.00000  Uiso   1.00
H2221  H     0.75010   0.87988   0.68136   0.00000  Uiso   1.00
H2222  H     0.75141   0.93467   0.68509   0.00000  Uiso   1.00
H2223  H     0.69616   0.90789   0.99044   0.00000  Uiso   1.00
O2224  O     0.67595   0.80882   0.89097   0.00000  Uiso   1.00
C2225  C     0.98344   0.77326   0.90561   0.00000  Uiso   1.00
H2226  H     0.66771   0.74616   0.89384   0.00000  Uiso   1.00
H2227  H     0.94391   0.76878   0.89028   0.00000  Uiso   1.00
C2228  C     0.98609   0.77301   0.95889   0.00000  Uiso   1.00
H2229  H     0.68290   0.79440   0.97437   0.00000  Uiso   1.00
H2230  H     0.95086   0.78483   0.96827   0.00000  Uiso   1.00
C2231  C     0.99539   0.73046   0.98042   0.00000  Uiso   1.00
H2232  H     0.97634   0.70608   0.95822   0.00000  Uiso   1.00
H2233  H     0.98256   0.72868   0.68200   0.00000  Uiso   1.00
H2234  H     0.70235   0.72402   0.98466   0.00000  Uiso   1.00
C2235  C     0.80567   0.68786   0.75512   0.00000  Uiso   1.00
N2236  N     0.77546   0.68677   0.72290   0.00000  Uiso   1.00
C2237  C     0.77738   0.95529   0.89836   0.00000  Uiso   1.00
N2238  N     0.75372   0.93798   0.92352   0.00000  Uiso   1.00
O2239  O     0.90936   0.97015   0.80959   0.00000  Uiso   1.00
C2240  C     0.93998   0.99705   0.78587   0.00000  Uiso   1.00
H2241  H     0.91999   0.67673   0.75351   0.00000  Uiso   1.00
H2242  H     0.97016   0.97893   0.77470   0.00000  Uiso   1.00
C2243  C     0.96499   0.69668   0.81840   0.00000  Uiso   1.00
H2244  H     0.93636   0.71588   0.83045   0.00000  Uiso   1.00
H2245  H     0.98623   0.68191   0.84935   0.00000  Uiso   1.00
C2246  C     0.66738   0.72373   0.79356   0.00000  Uiso   1.00
H2247  H     0.69504   0.70482   0.77933   0.00000  Uiso   1.00
H2248  H     0.68816   0.74566   0.81818   0.00000  Uiso   1.00
H2249  H     0.97940   0.74120   0.76483   0.00000  Uiso   1.00
O2250  O     0.82456   0.69967   0.91752   0.00000  Uiso   1.00
C2251  C     0.87432   0.69184   0.93670   0.00000  Uiso   1.00
H2252  H     0.89881   0.71736   0.92652   0.00000  Uiso   1.00
H2253  H     0.88866   0.99630   0.92432   0.00000  Uiso   1.00
C2254  C     0.87841   0.68787   0.98969   0.00000  Uiso   1.00
H2255  H     0.85123   0.99731   0.99951   0.00000  Uiso   1.00
H2256  H     0.91627   0.67773   0.67019   0.00000  Uiso   1.00
C2257  C     0.86890   0.72820   0.67815   0.00000  Uiso   1.00
H2258  H     0.88611   0.75433   0.99410   0.00000  Uiso   1.00
H2259  H     0.88365   0.72891   0.71559   0.00000  Uiso   1.00
H2260  H     0.82826   0.73183   0.67449   0.00000  Uiso   1.00
C2261  C     0.76540   0.78341   0.70940   0.00000  Uiso   1.00
N2262  N     0.73608   0.76436   0.72709   0.00000  Uiso   1.00
C2263  C     0.89734   0.88781   0.95706   0.00000  Uiso   1.00
N2264  N     0.92447   0.91024   0.94060   0.00000  Uiso   1.00
C2265  C     0.77476   0.77664   0.94467   0.00000  Uiso   1.00
N2266  N     0.75391   0.75121   0.92221   0.00000  Uiso   1.00
C2267  C     0.89031   0.89216   0.72016   0.00000  Uiso   1.00
N2268  N     0.91298   0.91820   0.74003   0.00000  Uiso   1.00
loop_
_geom_bond_atom_site_label_1
_geom_bond_atom_site_label_2
_geom_bond_distance
_geom_bond_site_symmetry_2
_ccdc_geom_bond_type
C1     O21     1.309   .     A
C1     C12     1.484   .     S
C1     O23     1.310   .     A
C2     O22     1.308   .     A
C2     C11     1.458   .     S
C2     O24     1.296   .     A
C3     O25     1.308   .     A
C3     C5      1.491   .     S
C3     O27     1.309   .     A
C4     O28     1.311   .     A
C4     C6      1.474   .     S
C4     O26     1.295   .     A
C5     C174    1.368   1_455 S
C5     O197    1.405   1_455 S
C6     C89     1.368   .     S
C6     O124    1.392   .     S
C7     C12     1.409   .     A
C7     C51     1.440   .     S
C7     C513    1.406   1_545 S
C8     C53     1.443   .     S
C8     C11     1.411   .     A
C8     C262    1.401   .     S
C9     O55     1.396   .     S
C9     C11     1.398   .     A
C9     C259    1.406   .     S
C10    O66     1.377   .     S
C10    C12     1.418   .     A
C10    C512    1.401   1_545 S
C13    C77     1.433   .     S
C13    N20     1.367   .     A
C13    C1527   1.432   1_554 S
C14    C79     1.445   .     S
C14    N19     1.369   .     A
C14    C772    1.428   .     S
C15    C81     1.426   .     S
C15    N19     1.366   .     A
C15    C769    1.432   .     S
C16    C83     1.427   .     S
C16    N20     1.371   .     A
C16    C1526   1.428   1_554 S
Cu17   O24     1.979   .     S
Cu17   O21     1.988   .     S
Cu17   Cu18    2.712   .     S
Cu17   O28     2.019   .     S
Cu17   O25     2.020   .     S
Cu17   N19     2.038   .     S
Cu18   O26     2.020   .     S
Cu18   N20     2.038   .     S
Cu18   O23     1.979   .     S
Cu18   O22     1.988   .     S
Cu18   O27     2.019   .     S
O29    C89     1.405   .     S
O29    C114    1.413   .     S
C30    C33     1.533   .     S
C30    H32     1.104   .     S
C30    O197    1.413   1_455 S
C30    H199    1.106   1_455 S
H31    C114    1.106   .     S
C33    C36     1.520   .     S
C33    H35     1.107   .     S
C33    H34     1.110   .     S
C36    H37     1.107   .     S
C36    H38     1.110   .     S
C36    H1551   1.111   1_554 S
H39    C792    1.111   .     S
O40    C174    1.392   1_455 S
O40    C209    1.423   1_455 S
C41    H43     1.107   .     S
C41    C44     1.533   .     S
C41    O124    1.423   .     S
C41    H126    1.103   .     S
H42    C209    1.103   1_455 S
C44    C47     1.533   .     S
C44    H46     1.107   .     S
C44    H129    1.110   .     S
H45    C212    1.110   1_455 S
C47    H48     1.105   .     S
C47    H805    1.108   .     S
C47    H134    1.106   .     S
H49    C1559   1.108   1_554 S
H50    C215    1.106   1_455 S
C51    N52     1.157   .     T
C53    N54     1.156   .     T
O55    C56     1.414   .     S
C56    H58     1.110   .     S
C56    H309    1.105   .     S
C56    C311    1.528   .     S
H57    C560    1.105   1_545 S
C59    H60     1.108   .     S
C59    H61     1.112   .     S
C59    C560    1.528   1_545 S
C59    C146    1.524   .     S
C62    H63     1.110   .     S
C62    H64     1.108   .     S
C62    C227    1.524   1_455 S
C62    H233    1.110   1_455 S
H65    C146    1.110   .     S
O66    C67     1.416   .     S
C67    H68     1.107   .     S
C67    C70     1.526   .     S
C67    H573    1.118   1_545 S
H69    C319    1.118   .     S
C70    H575    1.112   1_545 S
C70    H828    1.109   .     S
C70    C829    1.521   .     S
H71    C322    1.112   .     S
H72    C1582   1.109   1_554 S
C73    H75     1.105   .     S
C73    H76     1.099   .     S
C73    C1582   1.521   1_554 S
C73    H1586   1.103   1_554 S
H74    C829    1.103   .     S
C77    N78     1.155   .     T
C79    N80     1.158   .     T
C81    N82     1.152   .     T
C83    N84     1.151   .     T
C85    O105    1.309   .     A
C85    C96     1.484   .     S
C85    O107    1.310   .     A
C86    O106    1.308   .     A
C86    C95     1.458   .     S
C86    O108    1.296   .     A
C87    O109    1.308   .     A
C87    C89     1.491   .     S
C87    O111    1.309   .     A
C88    O112    1.311   .     A
C88    C90     1.474   .     S
C88    O110    1.295   .     A
C90    C173    1.368   .     S
C90    O208    1.392   .     S
C91    C96     1.409   .     A
C91    C135    1.440   .     S
C91    C597    1.406   1_545 S
C92    C137    1.443   .     S
C92    C95     1.411   .     A
C92    C346    1.401   .     S
C93    O139    1.396   .     S
C93    C95     1.398   .     A
C93    C343    1.406   .     S
C94    O150    1.377   .     S
C94    C96     1.418   .     A
C94    C596    1.401   1_545 S
C97    C161    1.433   .     S
C97    N104    1.367   .     A
C97    C1611   1.432   1_554 S
C98    C163    1.445   .     S
C98    N103    1.369   .     A
C98    C856    1.428   .     S
C99    C165    1.426   .     S
C99    N103    1.366   .     A
C99    C853    1.432   .     S
C100   C167    1.427   .     S
C100   N104    1.371   .     A
C100   C1610   1.428   1_554 S
Cu101  O108    1.979   .     S
Cu101  O105    1.988   .     S
Cu101  Cu102   2.712   .     S
Cu101  O112    2.019   .     S
Cu101  O109    2.020   .     S
Cu101  N103    2.038   .     S
Cu102  O110    2.020   .     S
Cu102  N104    2.038   .     S
Cu102  O107    1.979   .     S
Cu102  O106    1.988   .     S
Cu102  O111    2.019   .     S
O113   C173    1.405   .     S
O113   C198    1.413   .     S
C114   C117    1.533   .     S
C114   H116    1.104   .     S
H115   C198    1.106   .     S
C117   C120    1.520   .     S
C117   H119    1.107   .     S
C117   H118    1.110   .     S
C120   H121    1.107   .     S
C120   H122    1.110   .     S
C120   H1635   1.111   1_554 S
H123   C876    1.111   .     S
C125   H127    1.107   .     S
C125   C128    1.533   .     S
C125   O208    1.423   .     S
C125   H210    1.103   .     S
C128   C131    1.533   .     S
C128   H130    1.107   .     S
C128   H213    1.110   .     S
C131   H132    1.105   .     S
C131   H889    1.108   .     S
C131   H218    1.106   .     S
H133   C1643   1.108   1_554 S
C135   N136    1.157   .     T
C137   N138    1.156   .     T
O139   C140    1.414   .     S
C140   H142    1.110   .     S
C140   H393    1.105   .     S
C140   C395    1.528   .     S
H141   C644    1.105   1_545 S
C143   H144    1.108   .     S
C143   H145    1.112   .     S
C143   C644    1.528   1_545 S
C143   C230    1.524   .     S
C146   H147    1.110   .     S
C146   H148    1.108   .     S
H149   C230    1.110   .     S
O150   C151    1.416   .     S
C151   H152    1.107   .     S
C151   C154    1.526   .     S
C151   H657    1.118   1_545 S
H153   C403    1.118   .     S
C154   H659    1.112   1_545 S
C154   H912    1.109   .     S
C154   C913    1.521   .     S
H155   C406    1.112   .     S
H156   C1666   1.109   1_554 S
C157   H159    1.105   .     S
C157   H160    1.099   .     S
C157   C1666   1.521   1_554 S
C157   H1670   1.103   1_554 S
H158   C913    1.103   .     S
C161   N162    1.155   .     T
C163   N164    1.158   .     T
C165   N166    1.152   .     T
C167   N168    1.151   .     T
C169   O189    1.309   .     A
C169   C180    1.484   .     S
C169   O191    1.310   .     A
C170   O190    1.308   .     A
C170   C179    1.458   .     S
C170   O192    1.296   .     A
C171   O193    1.308   .     A
C171   C173    1.491   .     S
C171   O195    1.309   .     A
C172   O196    1.311   .     A
C172   C174    1.474   .     S
C172   O194    1.295   .     A
C174   C5      1.368   1_655 S
C174   O40     1.392   1_655 S
C175   C180    1.409   .     A
C175   C219    1.440   .     S
C175   C681    1.406   1_545 S
C176   C221    1.443   .     S
C176   C179    1.411   .     A
C176   C430    1.401   .     S
C177   O223    1.396   .     S
C177   C179    1.398   .     A
C177   C427    1.406   .     S
C178   O234    1.377   .     S
C178   C180    1.418   .     A
C178   C680    1.401   1_545 S
C181   C245    1.433   .     S
C181   N188    1.367   .     A
C181   C1695   1.432   1_554 S
C182   C247    1.445   .     S
C182   N187    1.369   .     A
C182   C940    1.428   .     S
C183   C249    1.426   .     S
C183   N187    1.366   .     A
C183   C937    1.432   .     S
C184   C251    1.427   .     S
C184   N188    1.371   .     A
C184   C1694   1.428   1_554 S
Cu185  O192    1.979   .     S
Cu185  O189    1.988   .     S
Cu185  Cu186   2.712   .     S
Cu185  O196    2.019   .     S
Cu185  O193    2.020   .     S
Cu185  N187    2.038   .     S
Cu186  O194    2.020   .     S
Cu186  N188    2.038   .     S
Cu186  O191    1.979   .     S
Cu186  O190    1.988   .     S
Cu186  O195    2.019   .     S
O197   C5      1.405   1_655 S
O197   C30     1.413   1_655 S
C198   C201    1.533   .     S
C198   H200    1.104   .     S
H199   C30     1.106   1_655 S
C201   C204    1.520   .     S
C201   H203    1.107   .     S
C201   H202    1.110   .     S
C204   H205    1.107   .     S
C204   H206    1.110   .     S
C204   H1719   1.111   1_554 S
H207   C960    1.111   .     S
C209   H211    1.107   .     S
C209   C212    1.533   .     S
C209   O40     1.423   1_655 S
C209   H42     1.103   1_655 S
C212   C215    1.533   .     S
C212   H214    1.107   .     S
C212   H45     1.110   1_655 S
C215   H216    1.105   .     S
C215   H973    1.108   .     S
C215   H50     1.106   1_655 S
H217   C1727   1.108   1_554 S
C219   N220    1.157   .     T
C221   N222    1.156   .     T
O223   C224    1.414   .     S
C224   H226    1.110   .     S
C224   H477    1.105   .     S
C224   C479    1.528   .     S
H225   C728    1.105   1_545 S
C227   H228    1.108   .     S
C227   H229    1.112   .     S
C227   C728    1.528   1_545 S
C227   C62     1.524   1_655 S
C230   H231    1.110   .     S
C230   H232    1.108   .     S
H233   C62     1.110   1_655 S
O234   C235    1.416   .     S
C235   H236    1.107   .     S
C235   C238    1.526   .     S
C235   H741    1.118   1_545 S
H237   C487    1.118   .     S
C238   H743    1.112   1_545 S
C238   H996    1.109   .     S
C238   C997    1.521   .     S
H239   C490    1.112   .     S
H240   C1750   1.109   1_554 S
C241   H243    1.105   .     S
C241   H244    1.099   .     S
C241   C1750   1.521   1_554 S
C241   H1754   1.103   1_554 S
H242   C997    1.103   .     S
C245   N246    1.155   .     T
C247   N248    1.158   .     T
C249   N250    1.152   .     T
C251   N252    1.151   .     T
C253   O273    1.309   .     A
C253   C264    1.484   .     S
C253   O275    1.310   .     A
C254   O274    1.308   .     A
C254   C263    1.458   .     S
C254   O276    1.296   .     A
C255   O277    1.308   .     A
C255   C257    1.491   .     S
C255   O279    1.309   .     A
C256   O280    1.311   .     A
C256   C258    1.474   .     S
C256   O278    1.295   .     A
C257   C426    1.368   1_455 S
C257   O449    1.405   1_455 S
C258   C341    1.368   .     S
C258   O376    1.392   .     S
C259   C264    1.409   .     A
C259   C303    1.440   .     S
C260   C305    1.443   .     S
C260   C263    1.411   .     A
C260   C514    1.401   .     S
C261   O307    1.396   .     S
C261   C263    1.398   .     A
C261   C511    1.406   .     S
C262   O318    1.377   .     S
C262   C264    1.418   .     A
C265   C329    1.433   .     S
C265   N272    1.367   .     A
C265   C1779   1.432   1_554 S
C266   C331    1.445   .     S
C266   N271    1.369   .     A
C266   C1024   1.428   .     S
C267   C333    1.426   .     S
C267   N271    1.366   .     A
C267   C1021   1.432   .     S
C268   C335    1.427   .     S
C268   N272    1.371   .     A
C268   C1778   1.428   1_554 S
Cu269  O276    1.979   .     S
Cu269  O273    1.988   .     S
Cu269  Cu270   2.712   .     S
Cu269  O280    2.019   .     S
Cu269  O277    2.020   .     S
Cu269  N271    2.038   .     S
Cu270  O278    2.020   .     S
Cu270  N272    2.038   .     S
Cu270  O275    1.979   .     S
Cu270  O274    1.988   .     S
Cu270  O279    2.019   .     S
O281   C341    1.405   .     S
O281   C366    1.413   .     S
C282   C285    1.533   .     S
C282   H284    1.104   .     S
C282   O449    1.413   1_455 S
C282   H451    1.106   1_455 S
H283   C366    1.106   .     S
C285   C288    1.520   .     S
C285   H287    1.107   .     S
C285   H286    1.110   .     S
C288   H289    1.107   .     S
C288   H290    1.110   .     S
C288   H1803   1.111   1_554 S
H291   C1044   1.111   .     S
O292   C426    1.392   1_455 S
O292   C461    1.423   1_455 S
C293   H295    1.107   .     S
C293   C296    1.533   .     S
C293   O376    1.423   .     S
C293   H378    1.103   .     S
H294   C461    1.103   1_455 S
C296   C299    1.533   .     S
C296   H298    1.107   .     S
C296   H381    1.110   .     S
H297   C464    1.110   1_455 S
C299   H300    1.105   .     S
C299   H1057   1.108   .     S
C299   H386    1.106   .     S
H301   C1811   1.108   1_554 S
H302   C467    1.106   1_455 S
C303   N304    1.157   .     T
C305   N306    1.156   .     T
O307   C308    1.414   .     S
C308   H310    1.110   .     S
C308   H561    1.105   .     S
C308   C563    1.528   .     S
C311   H312    1.108   .     S
C311   H313    1.112   .     S
C311   C398    1.524   .     S
C314   H315    1.110   .     S
C314   H316    1.108   .     S
C314   C479    1.524   1_455 S
C314   H485    1.110   1_455 S
H317   C398    1.110   .     S
O318   C319    1.416   .     S
C319   H320    1.107   .     S
C319   C322    1.526   .     S
H321   C571    1.118   .     S
C322   H1080   1.109   .     S
C322   C1081   1.521   .     S
H323   C574    1.112   .     S
H324   C1834   1.109   1_554 S
C325   H327    1.105   .     S
C325   H328    1.099   .     S
C325   C1834   1.521   1_554 S
C325   H1838   1.103   1_554 S
H326   C1081   1.103   .     S
C329   N330    1.155   .     T
C331   N332    1.158   .     T
C333   N334    1.152   .     T
C335   N336    1.151   .     T
C337   O357    1.309   .     A
C337   C348    1.484   .     S
C337   O359    1.310   .     A
C338   O358    1.308   .     A
C338   C347    1.458   .     S
C338   O360    1.296   .     A
C339   O361    1.308   .     A
C339   C341    1.491   .     S
C339   O363    1.309   .     A
C340   O364    1.311   .     A
C340   C342    1.474   .     S
C340   O362    1.295   .     A
C342   C425    1.368   .     S
C342   O460    1.392   .     S
C343   C348    1.409   .     A
C343   C387    1.440   .     S
C344   C389    1.443   .     S
C344   C347    1.411   .     A
C344   C598    1.401   .     S
C345   O391    1.396   .     S
C345   C347    1.398   .     A
C345   C595    1.406   .     S
C346   O402    1.377   .     S
C346   C348    1.418   .     A
C349   C413    1.433   .     S
C349   N356    1.367   .     A
C349   C1863   1.432   1_554 S
C350   C415    1.445   .     S
C350   N355    1.369   .     A
C350   C1108   1.428   .     S
C351   C417    1.426   .     S
C351   N355    1.366   .     A
C351   C1105   1.432   .     S
C352   C419    1.427   .     S
C352   N356    1.371   .     A
C352   C1862   1.428   1_554 S
Cu353  O360    1.979   .     S
Cu353  O357    1.988   .     S
Cu353  Cu354   2.712   .     S
Cu353  O364    2.019   .     S
Cu353  O361    2.020   .     S
Cu353  N355    2.038   .     S
Cu354  O362    2.020   .     S
Cu354  N356    2.038   .     S
Cu354  O359    1.979   .     S
Cu354  O358    1.988   .     S
Cu354  O363    2.019   .     S
O365   C425    1.405   .     S
O365   C450    1.413   .     S
C366   C369    1.533   .     S
C366   H368    1.104   .     S
H367   C450    1.106   .     S
C369   C372    1.520   .     S
C369   H371    1.107   .     S
C369   H370    1.110   .     S
C372   H373    1.107   .     S
C372   H374    1.110   .     S
C372   H1887   1.111   1_554 S
H375   C1128   1.111   .     S
C377   H379    1.107   .     S
C377   C380    1.533   .     S
C377   O460    1.423   .     S
C377   H462    1.103   .     S
C380   C383    1.533   .     S
C380   H382    1.107   .     S
C380   H465    1.110   .     S
C383   H384    1.105   .     S
C383   H1141   1.108   .     S
C383   H470    1.106   .     S
H385   C1895   1.108   1_554 S
C387   N388    1.157   .     T
C389   N390    1.156   .     T
O391   C392    1.414   .     S
C392   H394    1.110   .     S
C392   H645    1.105   .     S
C392   C647    1.528   .     S
C395   H396    1.108   .     S
C395   H397    1.112   .     S
C395   C482    1.524   .     S
C398   H399    1.110   .     S
C398   H400    1.108   .     S
H401   C482    1.110   .     S
O402   C403    1.416   .     S
C403   H404    1.107   .     S
C403   C406    1.526   .     S
H405   C655    1.118   .     S
C406   H1164   1.109   .     S
C406   C1165   1.521   .     S
H407   C658    1.112   .     S
H408   C1918   1.109   1_554 S
C409   H411    1.105   .     S
C409   H412    1.099   .     S
C409   C1918   1.521   1_554 S
C409   H1922   1.103   1_554 S
H410   C1165   1.103   .     S
C413   N414    1.155   .     T
C415   N416    1.158   .     T
C417   N418    1.152   .     T
C419   N420    1.151   .     T
C421   O441    1.309   .     A
C421   C432    1.484   .     S
C421   O443    1.310   .     A
C422   O442    1.308   .     A
C422   C431    1.458   .     S
C422   O444    1.296   .     A
C423   O445    1.308   .     A
C423   C425    1.491   .     S
C423   O447    1.309   .     A
C424   O448    1.311   .     A
C424   C426    1.474   .     S
C424   O446    1.295   .     A
C426   C257    1.368   1_655 S
C426   O292    1.392   1_655 S
C427   C432    1.409   .     A
C427   C471    1.440   .     S
C428   C473    1.443   .     S
C428   C431    1.411   .     A
C428   C682    1.401   .     S
C429   O475    1.396   .     S
C429   C431    1.398   .     A
C429   C679    1.406   .     S
C430   O486    1.377   .     S
C430   C432    1.418   .     A
C433   C497    1.433   .     S
C433   N440    1.367   .     A
C433   C1947   1.432   1_554 S
C434   C499    1.445   .     S
C434   N439    1.369   .     A
C434   C1192   1.428   .     S
C435   C501    1.426   .     S
C435   N439    1.366   .     A
C435   C1189   1.432   .     S
C436   C503    1.427   .     S
C436   N440    1.371   .     A
C436   C1946   1.428   1_554 S
Cu437  O444    1.979   .     S
Cu437  O441    1.988   .     S
Cu437  Cu438   2.712   .     S
Cu437  O448    2.019   .     S
Cu437  O445    2.020   .     S
Cu437  N439    2.038   .     S
Cu438  O446    2.020   .     S
Cu438  N440    2.038   .     S
Cu438  O443    1.979   .     S
Cu438  O442    1.988   .     S
Cu438  O447    2.019   .     S
O449   C257    1.405   1_655 S
O449   C282    1.413   1_655 S
C450   C453    1.533   .     S
C450   H452    1.104   .     S
H451   C282    1.106   1_655 S
C453   C456    1.520   .     S
C453   H455    1.107   .     S
C453   H454    1.110   .     S
C456   H457    1.107   .     S
C456   H458    1.110   .     S
C456   H1971   1.111   1_554 S
H459   C1212   1.111   .     S
C461   H463    1.107   .     S
C461   C464    1.533   .     S
C461   O292    1.423   1_655 S
C461   H294    1.103   1_655 S
C464   C467    1.533   .     S
C464   H466    1.107   .     S
C464   H297    1.110   1_655 S
C467   H468    1.105   .     S
C467   H1225   1.108   .     S
C467   H302    1.106   1_655 S
H469   C1979   1.108   1_554 S
C471   N472    1.157   .     T
C473   N474    1.156   .     T
O475   C476    1.414   .     S
C476   H478    1.110   .     S
C476   H729    1.105   .     S
C476   C731    1.528   .     S
C479   H480    1.108   .     S
C479   H481    1.112   .     S
C479   C314    1.524   1_655 S
C482   H483    1.110   .     S
C482   H484    1.108   .     S
H485   C314    1.110   1_655 S
O486   C487    1.416   .     S
C487   H488    1.107   .     S
C487   C490    1.526   .     S
H489   C739    1.118   .     S
C490   H1248   1.109   .     S
C490   C1249   1.521   .     S
H491   C742    1.112   .     S
H492   C2002   1.109   1_554 S
C493   H495    1.105   .     S
C493   H496    1.099   .     S
C493   C2002   1.521   1_554 S
C493   H2006   1.103   1_554 S
H494   C1249   1.103   .     S
C497   N498    1.155   .     T
C499   N500    1.158   .     T
C501   N502    1.152   .     T
C503   N504    1.151   .     T
C505   O525    1.309   .     A
C505   C516    1.484   .     S
C505   O527    1.310   .     A
C506   O526    1.308   .     A
C506   C515    1.458   .     S
C506   O528    1.296   .     A
C507   O529    1.308   .     A
C507   C509    1.491   .     S
C507   O531    1.309   .     A
C508   O532    1.311   .     A
C508   C510    1.474   .     S
C508   O530    1.295   .     A
C509   C678    1.368   1_455 S
C509   O701    1.405   1_455 S
C510   C593    1.368   .     S
C510   O628    1.392   .     S
C511   C516    1.409   .     A
C511   C555    1.440   .     S
C512   C557    1.443   .     S
C512   C515    1.411   .     A
C512   C10     1.401   1_565 S
C513   O559    1.396   .     S
C513   C515    1.398   .     A
C513   C7      1.406   1_565 S
C514   O570    1.377   .     S
C514   C516    1.418   .     A
C517   C581    1.433   .     S
C517   N524    1.367   .     A
C517   C2031   1.432   1_554 S
C518   C583    1.445   .     S
C518   N523    1.369   .     A
C518   C1276   1.428   .     S
C519   C585    1.426   .     S
C519   N523    1.366   .     A
C519   C1273   1.432   .     S
C520   C587    1.427   .     S
C520   N524    1.371   .     A
C520   C2030   1.428   1_554 S
Cu521  O528    1.979   .     S
Cu521  O525    1.988   .     S
Cu521  Cu522   2.712   .     S
Cu521  O532    2.019   .     S
Cu521  O529    2.020   .     S
Cu521  N523    2.038   .     S
Cu522  O530    2.020   .     S
Cu522  N524    2.038   .     S
Cu522  O527    1.979   .     S
Cu522  O526    1.988   .     S
Cu522  O531    2.019   .     S
O533   C593    1.405   .     S
O533   C618    1.413   .     S
C534   C537    1.533   .     S
C534   H536    1.104   .     S
C534   O701    1.413   1_455 S
C534   H703    1.106   1_455 S
H535   C618    1.106   .     S
C537   C540    1.520   .     S
C537   H539    1.107   .     S
C537   H538    1.110   .     S
C540   H541    1.107   .     S
C540   H542    1.110   .     S
C540   H2055   1.111   1_554 S
H543   C1296   1.111   .     S
O544   C678    1.392   1_455 S
O544   C713    1.423   1_455 S
C545   H547    1.107   .     S
C545   C548    1.533   .     S
C545   O628    1.423   .     S
C545   H630    1.103   .     S
H546   C713    1.103   1_455 S
C548   C551    1.533   .     S
C548   H550    1.107   .     S
C548   H633    1.110   .     S
H549   C716    1.110   1_455 S
C551   H552    1.105   .     S
C551   H1309   1.108   .     S
C551   H638    1.106   .     S
H553   C2063   1.108   1_554 S
H554   C719    1.106   1_455 S
C555   N556    1.157   .     T
C557   N558    1.156   .     T
O559   C560    1.414   .     S
C560   H562    1.110   .     S
C560   H57     1.105   1_565 S
C560   C59     1.528   1_565 S
C563   H564    1.108   .     S
C563   H565    1.112   .     S
C563   C650    1.524   .     S
C566   H567    1.110   .     S
C566   H568    1.108   .     S
C566   C731    1.524   1_455 S
C566   H737    1.110   1_455 S
H569   C650    1.110   .     S
O570   C571    1.416   .     S
C571   H572    1.107   .     S
C571   C574    1.526   .     S
H573   C67     1.118   1_565 S
C574   H1332   1.109   .     S
C574   C1333   1.521   .     S
H575   C70     1.112   1_565 S
H576   C2086   1.109   1_554 S
C577   H579    1.105   .     S
C577   H580    1.099   .     S
C577   C2086   1.521   1_554 S
C577   H2090   1.103   1_554 S
H578   C1333   1.103   .     S
C581   N582    1.155   .     T
C583   N584    1.158   .     T
C585   N586    1.152   .     T
C587   N588    1.151   .     T
C589   O609    1.309   .     A
C589   C600    1.484   .     S
C589   O611    1.310   .     A
C590   O610    1.308   .     A
C590   C599    1.458   .     S
C590   O612    1.296   .     A
C591   O613    1.308   .     A
C591   C593    1.491   .     S
C591   O615    1.309   .     A
C592   O616    1.311   .     A
C592   C594    1.474   .     S
C592   O614    1.295   .     A
C594   C677    1.368   .     S
C594   O712    1.392   .     S
C595   C600    1.409   .     A
C595   C639    1.440   .     S
C596   C641    1.443   .     S
C596   C599    1.411   .     A
C596   C94     1.401   1_565 S
C597   O643    1.396   .     S
C597   C599    1.398   .     A
C597   C91     1.406   1_565 S
C598   O654    1.377   .     S
C598   C600    1.418   .     A
C601   C665    1.433   .     S
C601   N608    1.367   .     A
C601   C2115   1.432   1_554 S
C602   C667    1.445   .     S
C602   N607    1.369   .     A
C602   C1360   1.428   .     S
C603   C669    1.426   .     S
C603   N607    1.366   .     A
C603   C1357   1.432   .     S
C604   C671    1.427   .     S
C604   N608    1.371   .     A
C604   C2114   1.428   1_554 S
Cu605  O612    1.979   .     S
Cu605  O609    1.988   .     S
Cu605  Cu606   2.712   .     S
Cu605  O616    2.019   .     S
Cu605  O613    2.020   .     S
Cu605  N607    2.038   .     S
Cu606  O614    2.020   .     S
Cu606  N608    2.038   .     S
Cu606  O611    1.979   .     S
Cu606  O610    1.988   .     S
Cu606  O615    2.019   .     S
O617   C677    1.405   .     S
O617   C702    1.413   .     S
C618   C621    1.533   .     S
C618   H620    1.104   .     S
H619   C702    1.106   .     S
C621   C624    1.520   .     S
C621   H623    1.107   .     S
C621   H622    1.110   .     S
C624   H625    1.107   .     S
C624   H626    1.110   .     S
C624   H2139   1.111   1_554 S
H627   C1380   1.111   .     S
C629   H631    1.107   .     S
C629   C632    1.533   .     S
C629   O712    1.423   .     S
C629   H714    1.103   .     S
C632   C635    1.533   .     S
C632   H634    1.107   .     S
C632   H717    1.110   .     S
C635   H636    1.105   .     S
C635   H1393   1.108   .     S
C635   H722    1.106   .     S
H637   C2147   1.108   1_554 S
C639   N640    1.157   .     T
C641   N642    1.156   .     T
O643   C644    1.414   .     S
C644   H646    1.110   .     S
C644   H141    1.105   1_565 S
C644   C143    1.528   1_565 S
C647   H648    1.108   .     S
C647   H649    1.112   .     S
C647   C734    1.524   .     S
C650   H651    1.110   .     S
C650   H652    1.108   .     S
H653   C734    1.110   .     S
O654   C655    1.416   .     S
C655   H656    1.107   .     S
C655   C658    1.526   .     S
H657   C151    1.118   1_565 S
C658   H1416   1.109   .     S
C658   C1417   1.521   .     S
H659   C154    1.112   1_565 S
H660   C2170   1.109   1_554 S
C661   H663    1.105   .     S
C661   H664    1.099   .     S
C661   C2170   1.521   1_554 S
C661   H2174   1.103   1_554 S
H662   C1417   1.103   .     S
C665   N666    1.155   .     T
C667   N668    1.158   .     T
C669   N670    1.152   .     T
C671   N672    1.151   .     T
C673   O693    1.309   .     A
C673   C684    1.484   .     S
C673   O695    1.310   .     A
C674   O694    1.308   .     A
C674   C683    1.458   .     S
C674   O696    1.296   .     A
C675   O697    1.308   .     A
C675   C677    1.491   .     S
C675   O699    1.309   .     A
C676   O700    1.311   .     A
C676   C678    1.474   .     S
C676   O698    1.295   .     A
C678   C509    1.368   1_655 S
C678   O544    1.392   1_655 S
C679   C684    1.409   .     A
C679   C723    1.440   .     S
C680   C725    1.443   .     S
C680   C683    1.411   .     A
C680   C178    1.401   1_565 S
C681   O727    1.396   .     S
C681   C683    1.398   .     A
C681   C175    1.406   1_565 S
C682   O738    1.377   .     S
C682   C684    1.418   .     A
C685   C749    1.433   .     S
C685   N692    1.367   .     A
C685   C2199   1.432   1_554 S
C686   C751    1.445   .     S
C686   N691    1.369   .     A
C686   C1444   1.428   .     S
C687   C753    1.426   .     S
C687   N691    1.366   .     A
C687   C1441   1.432   .     S
C688   C755    1.427   .     S
C688   N692    1.371   .     A
C688   C2198   1.428   1_554 S
Cu689  O696    1.979   .     S
Cu689  O693    1.988   .     S
Cu689  Cu690   2.712   .     S
Cu689  O700    2.019   .     S
Cu689  O697    2.020   .     S
Cu689  N691    2.038   .     S
Cu690  O698    2.020   .     S
Cu690  N692    2.038   .     S
Cu690  O695    1.979   .     S
Cu690  O694    1.988   .     S
Cu690  O699    2.019   .     S
O701   C509    1.405   1_655 S
O701   C534    1.413   1_655 S
C702   C705    1.533   .     S
C702   H704    1.104   .     S
H703   C534    1.106   1_655 S
C705   C708    1.520   .     S
C705   H707    1.107   .     S
C705   H706    1.110   .     S
C708   H709    1.107   .     S
C708   H710    1.110   .     S
C708   H2223   1.111   1_554 S
H711   C1464   1.111   .     S
C713   H715    1.107   .     S
C713   C716    1.533   .     S
C713   O544    1.423   1_655 S
C713   H546    1.103   1_655 S
C716   C719    1.533   .     S
C716   H718    1.107   .     S
C716   H549    1.110   1_655 S
C719   H720    1.105   .     S
C719   H1477   1.108   .     S
C719   H554    1.106   1_655 S
H721   C2231   1.108   1_554 S
C723   N724    1.157   .     T
C725   N726    1.156   .     T
O727   C728    1.414   .     S
C728   H730    1.110   .     S
C728   H225    1.105   1_565 S
C728   C227    1.528   1_565 S
C731   H732    1.108   .     S
C731   H733    1.112   .     S
C731   C566    1.524   1_655 S
C734   H735    1.110   .     S
C734   H736    1.108   .     S
H737   C566    1.110   1_655 S
O738   C739    1.416   .     S
C739   H740    1.107   .     S
C739   C742    1.526   .     S
H741   C235    1.118   1_565 S
C742   H1500   1.109   .     S
C742   C1501   1.521   .     S
H743   C238    1.112   1_565 S
H744   C2254   1.109   1_554 S
C745   H747    1.105   .     S
C745   H748    1.099   .     S
C745   C2254   1.521   1_554 S
C745   H2258   1.103   1_554 S
H746   C1501   1.103   .     S
C749   N750    1.155   .     T
C751   N752    1.158   .     T
C753   N754    1.152   .     T
C755   N756    1.151   .     T
C757   O777    1.309   .     A
C757   C768    1.484   .     S
C757   O779    1.310   .     A
C758   O778    1.308   .     A
C758   C767    1.458   .     S
C758   O780    1.296   .     A
C759   O781    1.308   .     A
C759   C761    1.491   .     S
C759   O783    1.309   .     A
C760   O784    1.311   .     A
C760   C762    1.474   .     S
C760   O782    1.295   .     A
C761   C930    1.368   1_455 S
C761   O953    1.405   1_455 S
C762   C845    1.368   .     S
C762   O880    1.392   .     S
C763   C768    1.409   .     A
C763   C807    1.440   .     S
C763   C1269   1.406   1_545 S
C764   C809    1.443   .     S
C764   C767    1.411   .     A
C764   C1018   1.401   .     S
C765   O811    1.396   .     S
C765   C767    1.398   .     A
C765   C1015   1.406   .     S
C766   O822    1.377   .     S
C766   C768    1.418   .     A
C766   C1268   1.401   1_545 S
C769   C833    1.433   .     S
C769   N776    1.367   .     A
C770   C835    1.445   .     S
C770   N775    1.369   .     A
C770   C1528   1.428   .     S
C771   C837    1.426   .     S
C771   N775    1.366   .     A
C771   C1525   1.432   .     S
C772   C839    1.427   .     S
C772   N776    1.371   .     A
Cu773  O780    1.979   .     S
Cu773  O777    1.988   .     S
Cu773  Cu774   2.712   .     S
Cu773  O784    2.019   .     S
Cu773  O781    2.020   .     S
Cu773  N775    2.038   .     S
Cu774  O782    2.020   .     S
Cu774  N776    2.038   .     S
Cu774  O779    1.979   .     S
Cu774  O778    1.988   .     S
Cu774  O783    2.019   .     S
O785   C845    1.405   .     S
O785   C870    1.413   .     S
C786   C789    1.533   .     S
C786   H788    1.104   .     S
C786   O953    1.413   1_455 S
C786   H955    1.106   1_455 S
H787   C870    1.106   .     S
C789   C792    1.520   .     S
C789   H791    1.107   .     S
C789   H790    1.110   .     S
C792   H793    1.107   .     S
C792   H794    1.110   .     S
H795   C1548   1.111   .     S
O796   C930    1.392   1_455 S
O796   C965    1.423   1_455 S
C797   H799    1.107   .     S
C797   C800    1.533   .     S
C797   O880    1.423   .     S
C797   H882    1.103   .     S
H798   C965    1.103   1_455 S
C800   C803    1.533   .     S
C800   H802    1.107   .     S
C800   H885    1.110   .     S
H801   C968    1.110   1_455 S
C803   H804    1.105   .     S
C803   H1561   1.108   .     S
C803   H890    1.106   .     S
H806   C971    1.106   1_455 S
C807   N808    1.157   .     T
C809   N810    1.156   .     T
O811   C812    1.414   .     S
C812   H814    1.110   .     S
C812   H1065   1.105   .     S
C812   C1067   1.528   .     S
H813   C1316   1.105   1_545 S
C815   H816    1.108   .     S
C815   H817    1.112   .     S
C815   C1316   1.528   1_545 S
C815   C902    1.524   .     S
C818   H819    1.110   .     S
C818   H820    1.108   .     S
C818   C983    1.524   1_455 S
C818   H989    1.110   1_455 S
H821   C902    1.110   .     S
O822   C823    1.416   .     S
C823   H824    1.107   .     S
C823   C826    1.526   .     S
C823   H1329   1.118   1_545 S
H825   C1075   1.118   .     S
C826   H1331   1.112   1_545 S
C826   H1584   1.109   .     S
C826   C1585   1.521   .     S
H827   C1078   1.112   .     S
C829   H831    1.105   .     S
C829   H832    1.099   .     S
H830   C1585   1.103   .     S
C833   N834    1.155   .     T
C835   N836    1.158   .     T
C837   N838    1.152   .     T
C839   N840    1.151   .     T
C841   O861    1.309   .     A
C841   C852    1.484   .     S
C841   O863    1.310   .     A
C842   O862    1.308   .     A
C842   C851    1.458   .     S
C842   O864    1.296   .     A
C843   O865    1.308   .     A
C843   C845    1.491   .     S
C843   O867    1.309   .     A
C844   O868    1.311   .     A
C844   C846    1.474   .     S
C844   O866    1.295   .     A
C846   C929    1.368   .     S
C846   O964    1.392   .     S
C847   C852    1.409   .     A
C847   C891    1.440   .     S
C847   C1353   1.406   1_545 S
C848   C893    1.443   .     S
C848   C851    1.411   .     A
C848   C1102   1.401   .     S
C849   O895    1.396   .     S
C849   C851    1.398   .     A
C849   C1099   1.406   .     S
C850   O906    1.377   .     S
C850   C852    1.418   .     A
C850   C1352   1.401   1_545 S
C853   C917    1.433   .     S
C853   N860    1.367   .     A
C854   C919    1.445   .     S
C854   N859    1.369   .     A
C854   C1612   1.428   .     S
C855   C921    1.426   .     S
C855   N859    1.366   .     A
C855   C1609   1.432   .     S
C856   C923    1.427   .     S
C856   N860    1.371   .     A
Cu857  O864    1.979   .     S
Cu857  O861    1.988   .     S
Cu857  Cu858   2.712   .     S
Cu857  O868    2.019   .     S
Cu857  O865    2.020   .     S
Cu857  N859    2.038   .     S
Cu858  O866    2.020   .     S
Cu858  N860    2.038   .     S
Cu858  O863    1.979   .     S
Cu858  O862    1.988   .     S
Cu858  O867    2.019   .     S
O869   C929    1.405   .     S
O869   C954    1.413   .     S
C870   C873    1.533   .     S
C870   H872    1.104   .     S
H871   C954    1.106   .     S
C873   C876    1.520   .     S
C873   H875    1.107   .     S
C873   H874    1.110   .     S
C876   H877    1.107   .     S
C876   H878    1.110   .     S
H879   C1632   1.111   .     S
C881   H883    1.107   .     S
C881   C884    1.533   .     S
C881   O964    1.423   .     S
C881   H966    1.103   .     S
C884   C887    1.533   .     S
C884   H886    1.107   .     S
C884   H969    1.110   .     S
C887   H888    1.105   .     S
C887   H1645   1.108   .     S
C887   H974    1.106   .     S
C891   N892    1.157   .     T
C893   N894    1.156   .     T
O895   C896    1.414   .     S
C896   H898    1.110   .     S
C896   H1149   1.105   .     S
C896   C1151   1.528   .     S
H897   C1400   1.105   1_545 S
C899   H900    1.108   .     S
C899   H901    1.112   .     S
C899   C1400   1.528   1_545 S
C899   C986    1.524   .     S
C902   H903    1.110   .     S
C902   H904    1.108   .     S
H905   C986    1.110   .     S
O906   C907    1.416   .     S
C907   H908    1.107   .     S
C907   C910    1.526   .     S
C907   H1413   1.118   1_545 S
H909   C1159   1.118   .     S
C910   H1415   1.112   1_545 S
C910   H1668   1.109   .     S
C910   C1669   1.521   .     S
H911   C1162   1.112   .     S
C913   H915    1.105   .     S
C913   H916    1.099   .     S
H914   C1669   1.103   .     S
C917   N918    1.155   .     T
C919   N920    1.158   .     T
C921   N922    1.152   .     T
C923   N924    1.151   .     T
C925   O945    1.309   .     A
C925   C936    1.484   .     S
C925   O947    1.310   .     A
C926   O946    1.308   .     A
C926   C935    1.458   .     S
C926   O948    1.296   .     A
C927   O949    1.308   .     A
C927   C929    1.491   .     S
C927   O951    1.309   .     A
C928   O952    1.311   .     A
C928   C930    1.474   .     S
C928   O950    1.295   .     A
C930   C761    1.368   1_655 S
C930   O796    1.392   1_655 S
C931   C936    1.409   .     A
C931   C975    1.440   .     S
C931   C1437   1.406   1_545 S
C932   C977    1.443   .     S
C932   C935    1.411   .     A
C932   C1186   1.401   .     S
C933   O979    1.396   .     S
C933   C935    1.398   .     A
C933   C1183   1.406   .     S
C934   O990    1.377   .     S
C934   C936    1.418   .     A
C934   C1436   1.401   1_545 S
C937   C1001   1.433   .     S
C937   N944    1.367   .     A
C938   C1003   1.445   .     S
C938   N943    1.369   .     A
C938   C1696   1.428   .     S
C939   C1005   1.426   .     S
C939   N943    1.366   .     A
C939   C1693   1.432   .     S
C940   C1007   1.427   .     S
C940   N944    1.371   .     A
Cu941  O948    1.979   .     S
Cu941  O945    1.988   .     S
Cu941  Cu942   2.712   .     S
Cu941  O952    2.019   .     S
Cu941  O949    2.020   .     S
Cu941  N943    2.038   .     S
Cu942  O950    2.020   .     S
Cu942  N944    2.038   .     S
Cu942  O947    1.979   .     S
Cu942  O946    1.988   .     S
Cu942  O951    2.019   .     S
O953   C761    1.405   1_655 S
O953   C786    1.413   1_655 S
C954   C957    1.533   .     S
C954   H956    1.104   .     S
H955   C786    1.106   1_655 S
C957   C960    1.520   .     S
C957   H959    1.107   .     S
C957   H958    1.110   .     S
C960   H961    1.107   .     S
C960   H962    1.110   .     S
H963   C1716   1.111   .     S
C965   H967    1.107   .     S
C965   C968    1.533   .     S
C965   O796    1.423   1_655 S
C965   H798    1.103   1_655 S
C968   C971    1.533   .     S
C968   H970    1.107   .     S
C968   H801    1.110   1_655 S
C971   H972    1.105   .     S
C971   H1729   1.108   .     S
C971   H806    1.106   1_655 S
C975   N976    1.157   .     T
C977   N978    1.156   .     T
O979   C980    1.414   .     S
C980   H982    1.110   .     S
C980   H1233   1.105   .     S
C980   C1235   1.528   .     S
H981   C1484   1.105   1_545 S
C983   H984    1.108   .     S
C983   H985    1.112   .     S
C983   C1484   1.528   1_545 S
C983   C818    1.524   1_655 S
C986   H987    1.110   .     S
C986   H988    1.108   .     S
H989   C818    1.110   1_655 S
O990   C991    1.416   .     S
C991   H992    1.107   .     S
C991   C994    1.526   .     S
C991   H1497   1.118   1_545 S
H993   C1243   1.118   .     S
C994   H1499   1.112   1_545 S
C994   H1752   1.109   .     S
C994   C1753   1.521   .     S
H995   C1246   1.112   .     S
C997   H999    1.105   .     S
C997   H1000   1.099   .     S
H998   C1753   1.103   .     S
C1001  N1002   1.155   .     T
C1003  N1004   1.158   .     T
C1005  N1006   1.152   .     T
C1007  N1008   1.151   .     T
C1009  O1029   1.309   .     A
C1009  C1020   1.484   .     S
C1009  O1031   1.310   .     A
C1010  O1030   1.308   .     A
C1010  C1019   1.458   .     S
C1010  O1032   1.296   .     A
C1011  O1033   1.308   .     A
C1011  C1013   1.491   .     S
C1011  O1035   1.309   .     A
C1012  O1036   1.311   .     A
C1012  C1014   1.474   .     S
C1012  O1034   1.295   .     A
C1013  C1182   1.368   1_455 S
C1013  O1205   1.405   1_455 S
C1014  C1097   1.368   .     S
C1014  O1132   1.392   .     S
C1015  C1020   1.409   .     A
C1015  C1059   1.440   .     S
C1016  C1061   1.443   .     S
C1016  C1019   1.411   .     A
C1016  C1270   1.401   .     S
C1017  O1063   1.396   .     S
C1017  C1019   1.398   .     A
C1017  C1267   1.406   .     S
C1018  O1074   1.377   .     S
C1018  C1020   1.418   .     A
C1021  C1085   1.433   .     S
C1021  N1028   1.367   .     A
C1022  C1087   1.445   .     S
C1022  N1027   1.369   .     A
C1022  C1780   1.428   .     S
C1023  C1089   1.426   .     S
C1023  N1027   1.366   .     A
C1023  C1777   1.432   .     S
C1024  C1091   1.427   .     S
C1024  N1028   1.371   .     A
Cu1025 O1032   1.979   .     S
Cu1025 O1029   1.988   .     S
Cu1025 Cu1026  2.712   .     S
Cu1025 O1036   2.019   .     S
Cu1025 O1033   2.020   .     S
Cu1025 N1027   2.038   .     S
Cu1026 O1034   2.020   .     S
Cu1026 N1028   2.038   .     S
Cu1026 O1031   1.979   .     S
Cu1026 O1030   1.988   .     S
Cu1026 O1035   2.019   .     S
O1037  C1097   1.405   .     S
O1037  C1122   1.413   .     S
C1038  C1041   1.533   .     S
C1038  H1040   1.104   .     S
C1038  O1205   1.413   1_455 S
C1038  H1207   1.106   1_455 S
H1039  C1122   1.106   .     S
C1041  C1044   1.520   .     S
C1041  H1043   1.107   .     S
C1041  H1042   1.110   .     S
C1044  H1045   1.107   .     S
C1044  H1046   1.110   .     S
H1047  C1800   1.111   .     S
O1048  C1182   1.392   1_455 S
O1048  C1217   1.423   1_455 S
C1049  H1051   1.107   .     S
C1049  C1052   1.533   .     S
C1049  O1132   1.423   .     S
C1049  H1134   1.103   .     S
H1050  C1217   1.103   1_455 S
C1052  C1055   1.533   .     S
C1052  H1054   1.107   .     S
C1052  H1137   1.110   .     S
H1053  C1220   1.110   1_455 S
C1055  H1056   1.105   .     S
C1055  H1813   1.108   .     S
C1055  H1142   1.106   .     S
H1058  C1223   1.106   1_455 S
C1059  N1060   1.157   .     T
C1061  N1062   1.156   .     T
O1063  C1064   1.414   .     S
C1064  H1066   1.110   .     S
C1064  H1317   1.105   .     S
C1064  C1319   1.528   .     S
C1067  H1068   1.108   .     S
C1067  H1069   1.112   .     S
C1067  C1154   1.524   .     S
C1070  H1071   1.110   .     S
C1070  H1072   1.108   .     S
C1070  C1235   1.524   1_455 S
C1070  H1241   1.110   1_455 S
H1073  C1154   1.110   .     S
O1074  C1075   1.416   .     S
C1075  H1076   1.107   .     S
C1075  C1078   1.526   .     S
H1077  C1327   1.118   .     S
C1078  H1836   1.109   .     S
C1078  C1837   1.521   .     S
H1079  C1330   1.112   .     S
C1081  H1083   1.105   .     S
C1081  H1084   1.099   .     S
H1082  C1837   1.103   .     S
C1085  N1086   1.155   .     T
C1087  N1088   1.158   .     T
C1089  N1090   1.152   .     T
C1091  N1092   1.151   .     T
C1093  O1113   1.309   .     A
C1093  C1104   1.484   .     S
C1093  O1115   1.310   .     A
C1094  O1114   1.308   .     A
C1094  C1103   1.458   .     S
C1094  O1116   1.296   .     A
C1095  O1117   1.308   .     A
C1095  C1097   1.491   .     S
C1095  O1119   1.309   .     A
C1096  O1120   1.311   .     A
C1096  C1098   1.474   .     S
C1096  O1118   1.295   .     A
C1098  C1181   1.368   .     S
C1098  O1216   1.392   .     S
C1099  C1104   1.409   .     A
C1099  C1143   1.440   .     S
C1100  C1145   1.443   .     S
C1100  C1103   1.411   .     A
C1100  C1354   1.401   .     S
C1101  O1147   1.396   .     S
C1101  C1103   1.398   .     A
C1101  C1351   1.406   .     S
C1102  O1158   1.377   .     S
C1102  C1104   1.418   .     A
C1105  C1169   1.433   .     S
C1105  N1112   1.367   .     A
C1106  C1171   1.445   .     S
C1106  N1111   1.369   .     A
C1106  C1864   1.428   .     S
C1107  C1173   1.426   .     S
C1107  N1111   1.366   .     A
C1107  C1861   1.432   .     S
C1108  C1175   1.427   .     S
C1108  N1112   1.371   .     A
Cu1109 O1116   1.979   .     S
Cu1109 O1113   1.988   .     S
Cu1109 Cu1110  2.712   .     S
Cu1109 O1120   2.019   .     S
Cu1109 O1117   2.020   .     S
Cu1109 N1111   2.038   .     S
Cu1110 O1118   2.020   .     S
Cu1110 N1112   2.038   .     S
Cu1110 O1115   1.979   .     S
Cu1110 O1114   1.988   .     S
Cu1110 O1119   2.019   .     S
O1121  C1181   1.405   .     S
O1121  C1206   1.413   .     S
C1122  C1125   1.533   .     S
C1122  H1124   1.104   .     S
H1123  C1206   1.106   .     S
C1125  C1128   1.520   .     S
C1125  H1127   1.107   .     S
C1125  H1126   1.110   .     S
C1128  H1129   1.107   .     S
C1128  H1130   1.110   .     S
H1131  C1884   1.111   .     S
C1133  H1135   1.107   .     S
C1133  C1136   1.533   .     S
C1133  O1216   1.423   .     S
C1133  H1218   1.103   .     S
C1136  C1139   1.533   .     S
C1136  H1138   1.107   .     S
C1136  H1221   1.110   .     S
C1139  H1140   1.105   .     S
C1139  H1897   1.108   .     S
C1139  H1226   1.106   .     S
C1143  N1144   1.157   .     T
C1145  N1146   1.156   .     T
O1147  C1148   1.414   .     S
C1148  H1150   1.110   .     S
C1148  H1401   1.105   .     S
C1148  C1403   1.528   .     S
C1151  H1152   1.108   .     S
C1151  H1153   1.112   .     S
C1151  C1238   1.524   .     S
C1154  H1155   1.110   .     S
C1154  H1156   1.108   .     S
H1157  C1238   1.110   .     S
O1158  C1159   1.416   .     S
C1159  H1160   1.107   .     S
C1159  C1162   1.526   .     S
H1161  C1411   1.118   .     S
C1162  H1920   1.109   .     S
C1162  C1921   1.521   .     S
H1163  C1414   1.112   .     S
C1165  H1167   1.105   .     S
C1165  H1168   1.099   .     S
H1166  C1921   1.103   .     S
C1169  N1170   1.155   .     T
C1171  N1172   1.158   .     T
C1173  N1174   1.152   .     T
C1175  N1176   1.151   .     T
C1177  O1197   1.309   .     A
C1177  C1188   1.484   .     S
C1177  O1199   1.310   .     A
C1178  O1198   1.308   .     A
C1178  C1187   1.458   .     S
C1178  O1200   1.296   .     A
C1179  O1201   1.308   .     A
C1179  C1181   1.491   .     S
C1179  O1203   1.309   .     A
C1180  O1204   1.311   .     A
C1180  C1182   1.474   .     S
C1180  O1202   1.295   .     A
C1182  C1013   1.368   1_655 S
C1182  O1048   1.392   1_655 S
C1183  C1188   1.409   .     A
C1183  C1227   1.440   .     S
C1184  C1229   1.443   .     S
C1184  C1187   1.411   .     A
C1184  C1438   1.401   .     S
C1185  O1231   1.396   .     S
C1185  C1187   1.398   .     A
C1185  C1435   1.406   .     S
C1186  O1242   1.377   .     S
C1186  C1188   1.418   .     A
C1189  C1253   1.433   .     S
C1189  N1196   1.367   .     A
C1190  C1255   1.445   .     S
C1190  N1195   1.369   .     A
C1190  C1948   1.428   .     S
C1191  C1257   1.426   .     S
C1191  N1195   1.366   .     A
C1191  C1945   1.432   .     S
C1192  C1259   1.427   .     S
C1192  N1196   1.371   .     A
Cu1193 O1200   1.979   .     S
Cu1193 O1197   1.988   .     S
Cu1193 Cu1194  2.712   .     S
Cu1193 O1204   2.019   .     S
Cu1193 O1201   2.020   .     S
Cu1193 N1195   2.038   .     S
Cu1194 O1202   2.020   .     S
Cu1194 N1196   2.038   .     S
Cu1194 O1199   1.979   .     S
Cu1194 O1198   1.988   .     S
Cu1194 O1203   2.019   .     S
O1205  C1013   1.405   1_655 S
O1205  C1038   1.413   1_655 S
C1206  C1209   1.533   .     S
C1206  H1208   1.104   .     S
H1207  C1038   1.106   1_655 S
C1209  C1212   1.520   .     S
C1209  H1211   1.107   .     S
C1209  H1210   1.110   .     S
C1212  H1213   1.107   .     S
C1212  H1214   1.110   .     S
H1215  C1968   1.111   .     S
C1217  H1219   1.107   .     S
C1217  C1220   1.533   .     S
C1217  O1048   1.423   1_655 S
C1217  H1050   1.103   1_655 S
C1220  C1223   1.533   .     S
C1220  H1222   1.107   .     S
C1220  H1053   1.110   1_655 S
C1223  H1224   1.105   .     S
C1223  H1981   1.108   .     S
C1223  H1058   1.106   1_655 S
C1227  N1228   1.157   .     T
C1229  N1230   1.156   .     T
O1231  C1232   1.414   .     S
C1232  H1234   1.110   .     S
C1232  H1485   1.105   .     S
C1232  C1487   1.528   .     S
C1235  H1236   1.108   .     S
C1235  H1237   1.112   .     S
C1235  C1070   1.524   1_655 S
C1238  H1239   1.110   .     S
C1238  H1240   1.108   .     S
H1241  C1070   1.110   1_655 S
O1242  C1243   1.416   .     S
C1243  H1244   1.107   .     S
C1243  C1246   1.526   .     S
H1245  C1495   1.118   .     S
C1246  H2004   1.109   .     S
C1246  C2005   1.521   .     S
H1247  C1498   1.112   .     S
C1249  H1251   1.105   .     S
C1249  H1252   1.099   .     S
H1250  C2005   1.103   .     S
C1253  N1254   1.155   .     T
C1255  N1256   1.158   .     T
C1257  N1258   1.152   .     T
C1259  N1260   1.151   .     T
C1261  O1281   1.309   .     A
C1261  C1272   1.484   .     S
C1261  O1283   1.310   .     A
C1262  O1282   1.308   .     A
C1262  C1271   1.458   .     S
C1262  O1284   1.296   .     A
C1263  O1285   1.308   .     A
C1263  C1265   1.491   .     S
C1263  O1287   1.309   .     A
C1264  O1288   1.311   .     A
C1264  C1266   1.474   .     S
C1264  O1286   1.295   .     A
C1265  C1434   1.368   1_455 S
C1265  O1457   1.405   1_455 S
C1266  C1349   1.368   .     S
C1266  O1384   1.392   .     S
C1267  C1272   1.409   .     A
C1267  C1311   1.440   .     S
C1268  C1313   1.443   .     S
C1268  C1271   1.411   .     A
C1268  C766    1.401   1_565 S
C1269  O1315   1.396   .     S
C1269  C1271   1.398   .     A
C1269  C763    1.406   1_565 S
C1270  O1326   1.377   .     S
C1270  C1272   1.418   .     A
C1273  C1337   1.433   .     S
C1273  N1280   1.367   .     A
C1274  C1339   1.445   .     S
C1274  N1279   1.369   .     A
C1274  C2032   1.428   .     S
C1275  C1341   1.426   .     S
C1275  N1279   1.366   .     A
C1275  C2029   1.432   .     S
C1276  C1343   1.427   .     S
C1276  N1280   1.371   .     A
Cu1277 O1284   1.979   .     S
Cu1277 O1281   1.988   .     S
Cu1277 Cu1278  2.712   .     S
Cu1277 O1288   2.019   .     S
Cu1277 O1285   2.020   .     S
Cu1277 N1279   2.038   .     S
Cu1278 O1286   2.020   .     S
Cu1278 N1280   2.038   .     S
Cu1278 O1283   1.979   .     S
Cu1278 O1282   1.988   .     S
Cu1278 O1287   2.019   .     S
O1289  C1349   1.405   .     S
O1289  C1374   1.413   .     S
C1290  C1293   1.533   .     S
C1290  H1292   1.104   .     S
C1290  O1457   1.413   1_455 S
C1290  H1459   1.106   1_455 S
H1291  C1374   1.106   .     S
C1293  C1296   1.520   .     S
C1293  H1295   1.107   .     S
C1293  H1294   1.110   .     S
C1296  H1297   1.107   .     S
C1296  H1298   1.110   .     S
H1299  C2052   1.111   .     S
O1300  C1434   1.392   1_455 S
O1300  C1469   1.423   1_455 S
C1301  H1303   1.107   .     S
C1301  C1304   1.533   .     S
C1301  O1384   1.423   .     S
C1301  H1386   1.103   .     S
H1302  C1469   1.103   1_455 S
C1304  C1307   1.533   .     S
C1304  H1306   1.107   .     S
C1304  H1389   1.110   .     S
H1305  C1472   1.110   1_455 S
C1307  H1308   1.105   .     S
C1307  H2065   1.108   .     S
C1307  H1394   1.106   .     S
H1310  C1475   1.106   1_455 S
C1311  N1312   1.157   .     T
C1313  N1314   1.156   .     T
O1315  C1316   1.414   .     S
C1316  H1318   1.110   .     S
C1316  H813    1.105   1_565 S
C1316  C815    1.528   1_565 S
C1319  H1320   1.108   .     S
C1319  H1321   1.112   .     S
C1319  C1406   1.524   .     S
C1322  H1323   1.110   .     S
C1322  H1324   1.108   .     S
C1322  C1487   1.524   1_455 S
C1322  H1493   1.110   1_455 S
H1325  C1406   1.110   .     S
O1326  C1327   1.416   .     S
C1327  H1328   1.107   .     S
C1327  C1330   1.526   .     S
H1329  C823    1.118   1_565 S
C1330  H2088   1.109   .     S
C1330  C2089   1.521   .     S
H1331  C826    1.112   1_565 S
C1333  H1335   1.105   .     S
C1333  H1336   1.099   .     S
H1334  C2089   1.103   .     S
C1337  N1338   1.155   .     T
C1339  N1340   1.158   .     T
C1341  N1342   1.152   .     T
C1343  N1344   1.151   .     T
C1345  O1365   1.309   .     A
C1345  C1356   1.484   .     S
C1345  O1367   1.310   .     A
C1346  O1366   1.308   .     A
C1346  C1355   1.458   .     S
C1346  O1368   1.296   .     A
C1347  O1369   1.308   .     A
C1347  C1349   1.491   .     S
C1347  O1371   1.309   .     A
C1348  O1372   1.311   .     A
C1348  C1350   1.474   .     S
C1348  O1370   1.295   .     A
C1350  C1433   1.368   .     S
C1350  O1468   1.392   .     S
C1351  C1356   1.409   .     A
C1351  C1395   1.440   .     S
C1352  C1397   1.443   .     S
C1352  C1355   1.411   .     A
C1352  C850    1.401   1_565 S
C1353  O1399   1.396   .     S
C1353  C1355   1.398   .     A
C1353  C847    1.406   1_565 S
C1354  O1410   1.377   .     S
C1354  C1356   1.418   .     A
C1357  C1421   1.433   .     S
C1357  N1364   1.367   .     A
C1358  C1423   1.445   .     S
C1358  N1363   1.369   .     A
C1358  C2116   1.428   .     S
C1359  C1425   1.426   .     S
C1359  N1363   1.366   .     A
C1359  C2113   1.432   .     S
C1360  C1427   1.427   .     S
C1360  N1364   1.371   .     A
Cu1361 O1368   1.979   .     S
Cu1361 O1365   1.988   .     S
Cu1361 Cu1362  2.712   .     S
Cu1361 O1372   2.019   .     S
Cu1361 O1369   2.020   .     S
Cu1361 N1363   2.038   .     S
Cu1362 O1370   2.020   .     S
Cu1362 N1364   2.038   .     S
Cu1362 O1367   1.979   .     S
Cu1362 O1366   1.988   .     S
Cu1362 O1371   2.019   .     S
O1373  C1433   1.405   .     S
O1373  C1458   1.413   .     S
C1374  C1377   1.533   .     S
C1374  H1376   1.104   .     S
H1375  C1458   1.106   .     S
C1377  C1380   1.520   .     S
C1377  H1379   1.107   .     S
C1377  H1378   1.110   .     S
C1380  H1381   1.107   .     S
C1380  H1382   1.110   .     S
H1383  C2136   1.111   .     S
C1385  H1387   1.107   .     S
C1385  C1388   1.533   .     S
C1385  O1468   1.423   .     S
C1385  H1470   1.103   .     S
C1388  C1391   1.533   .     S
C1388  H1390   1.107   .     S
C1388  H1473   1.110   .     S
C1391  H1392   1.105   .     S
C1391  H2149   1.108   .     S
C1391  H1478   1.106   .     S
C1395  N1396   1.157   .     T
C1397  N1398   1.156   .     T
O1399  C1400   1.414   .     S
C1400  H1402   1.110   .     S
C1400  H897    1.105   1_565 S
C1400  C899    1.528   1_565 S
C1403  H1404   1.108   .     S
C1403  H1405   1.112   .     S
C1403  C1490   1.524   .     S
C1406  H1407   1.110   .     S
C1406  H1408   1.108   .     S
H1409  C1490   1.110   .     S
O1410  C1411   1.416   .     S
C1411  H1412   1.107   .     S
C1411  C1414   1.526   .     S
H1413  C907    1.118   1_565 S
C1414  H2172   1.109   .     S
C1414  C2173   1.521   .     S
H1415  C910    1.112   1_565 S
C1417  H1419   1.105   .     S
C1417  H1420   1.099   .     S
H1418  C2173   1.103   .     S
C1421  N1422   1.155   .     T
C1423  N1424   1.158   .     T
C1425  N1426   1.152   .     T
C1427  N1428   1.151   .     T
C1429  O1449   1.309   .     A
C1429  C1440   1.484   .     S
C1429  O1451   1.310   .     A
C1430  O1450   1.308   .     A
C1430  C1439   1.458   .     S
C1430  O1452   1.296   .     A
C1431  O1453   1.308   .     A
C1431  C1433   1.491   .     S
C1431  O1455   1.309   .     A
C1432  O1456   1.311   .     A
C1432  C1434   1.474   .     S
C1432  O1454   1.295   .     A
C1434  C1265   1.368   1_655 S
C1434  O1300   1.392   1_655 S
C1435  C1440   1.409   .     A
C1435  C1479   1.440   .     S
C1436  C1481   1.443   .     S
C1436  C1439   1.411   .     A
C1436  C934    1.401   1_565 S
C1437  O1483   1.396   .     S
C1437  C1439   1.398   .     A
C1437  C931    1.406   1_565 S
C1438  O1494   1.377   .     S
C1438  C1440   1.418   .     A
C1441  C1505   1.433   .     S
C1441  N1448   1.367   .     A
C1442  C1507   1.445   .     S
C1442  N1447   1.369   .     A
C1442  C2200   1.428   .     S
C1443  C1509   1.426   .     S
C1443  N1447   1.366   .     A
C1443  C2197   1.432   .     S
C1444  C1511   1.427   .     S
C1444  N1448   1.371   .     A
Cu1445 O1452   1.979   .     S
Cu1445 O1449   1.988   .     S
Cu1445 Cu1446  2.712   .     S
Cu1445 O1456   2.019   .     S
Cu1445 O1453   2.020   .     S
Cu1445 N1447   2.038   .     S
Cu1446 O1454   2.020   .     S
Cu1446 N1448   2.038   .     S
Cu1446 O1451   1.979   .     S
Cu1446 O1450   1.988   .     S
Cu1446 O1455   2.019   .     S
O1457  C1265   1.405   1_655 S
O1457  C1290   1.413   1_655 S
C1458  C1461   1.533   .     S
C1458  H1460   1.104   .     S
H1459  C1290   1.106   1_655 S
C1461  C1464   1.520   .     S
C1461  H1463   1.107   .     S
C1461  H1462   1.110   .     S
C1464  H1465   1.107   .     S
C1464  H1466   1.110   .     S
H1467  C2220   1.111   .     S
C1469  H1471   1.107   .     S
C1469  C1472   1.533   .     S
C1469  O1300   1.423   1_655 S
C1469  H1302   1.103   1_655 S
C1472  C1475   1.533   .     S
C1472  H1474   1.107   .     S
C1472  H1305   1.110   1_655 S
C1475  H1476   1.105   .     S
C1475  H2233   1.108   .     S
C1475  H1310   1.106   1_655 S
C1479  N1480   1.157   .     T
C1481  N1482   1.156   .     T
O1483  C1484   1.414   .     S
C1484  H1486   1.110   .     S
C1484  H981    1.105   1_565 S
C1484  C983    1.528   1_565 S
C1487  H1488   1.108   .     S
C1487  H1489   1.112   .     S
C1487  C1322   1.524   1_655 S
C1490  H1491   1.110   .     S
C1490  H1492   1.108   .     S
H1493  C1322   1.110   1_655 S
O1494  C1495   1.416   .     S
C1495  H1496   1.107   .     S
C1495  C1498   1.526   .     S
H1497  C991    1.118   1_565 S
C1498  H2256   1.109   .     S
C1498  C2257   1.521   .     S
H1499  C994    1.112   1_565 S
C1501  H1503   1.105   .     S
C1501  H1504   1.099   .     S
H1502  C2257   1.103   .     S
C1505  N1506   1.155   .     T
C1507  N1508   1.158   .     T
C1509  N1510   1.152   .     T
C1511  N1512   1.151   .     T
C1513  O1533   1.309   .     A
C1513  C1524   1.484   .     S
C1513  O1535   1.310   .     A
C1514  O1534   1.308   .     A
C1514  C1523   1.458   .     S
C1514  O1536   1.296   .     A
C1515  O1537   1.308   .     A
C1515  C1517   1.491   .     S
C1515  O1539   1.309   .     A
C1516  O1540   1.311   .     A
C1516  C1518   1.474   .     S
C1516  O1538   1.295   .     A
C1517  C1686   1.368   1_455 S
C1517  O1709   1.405   1_455 S
C1518  C1601   1.368   .     S
C1518  O1636   1.392   .     S
C1519  C1524   1.409   .     A
C1519  C1563   1.440   .     S
C1519  C2025   1.406   1_545 S
C1520  C1565   1.443   .     S
C1520  C1523   1.411   .     A
C1520  C1774   1.401   .     S
C1521  O1567   1.396   .     S
C1521  C1523   1.398   .     A
C1521  C1771   1.406   .     S
C1522  O1578   1.377   .     S
C1522  C1524   1.418   .     A
C1522  C2024   1.401   1_545 S
C1525  C1589   1.433   .     S
C1525  N1532   1.367   .     A
C1526  C1591   1.445   .     S
C1526  N1531   1.369   .     A
C1526  C16     1.428   1_556 S
C1527  C1593   1.426   .     S
C1527  N1531   1.366   .     A
C1527  C13     1.432   1_556 S
C1528  C1595   1.427   .     S
C1528  N1532   1.371   .     A
Cu1529 O1536   1.979   .     S
Cu1529 O1533   1.988   .     S
Cu1529 Cu1530  2.712   .     S
Cu1529 O1540   2.019   .     S
Cu1529 O1537   2.020   .     S
Cu1529 N1531   2.038   .     S
Cu1530 O1538   2.020   .     S
Cu1530 N1532   2.038   .     S
Cu1530 O1535   1.979   .     S
Cu1530 O1534   1.988   .     S
Cu1530 O1539   2.019   .     S
O1541  C1601   1.405   .     S
O1541  C1626   1.413   .     S
C1542  C1545   1.533   .     S
C1542  H1544   1.104   .     S
C1542  O1709   1.413   1_455 S
C1542  H1711   1.106   1_455 S
H1543  C1626   1.106   .     S
C1545  C1548   1.520   .     S
C1545  H1547   1.107   .     S
C1545  H1546   1.110   .     S
C1548  H1549   1.107   .     S
C1548  H1550   1.110   .     S
H1551  C36     1.111   1_556 S
O1552  C1686   1.392   1_455 S
O1552  C1721   1.423   1_455 S
C1553  H1555   1.107   .     S
C1553  C1556   1.533   .     S
C1553  O1636   1.423   .     S
C1553  H1638   1.103   .     S
H1554  C1721   1.103   1_455 S
C1556  C1559   1.533   .     S
C1556  H1558   1.107   .     S
C1556  H1641   1.110   .     S
H1557  C1724   1.110   1_455 S
C1559  H1560   1.105   .     S
C1559  H49     1.108   1_556 S
C1559  H1646   1.106   .     S
H1562  C1727   1.106   1_455 S
C1563  N1564   1.157   .     T
C1565  N1566   1.156   .     T
O1567  C1568   1.414   .     S
C1568  H1570   1.110   .     S
C1568  H1821   1.105   .     S
C1568  C1823   1.528   .     S
H1569  C2072   1.105   1_545 S
C1571  H1572   1.108   .     S
C1571  H1573   1.112   .     S
C1571  C2072   1.528   1_545 S
C1571  C1658   1.524   .     S
C1574  H1575   1.110   .     S
C1574  H1576   1.108   .     S
C1574  C1739   1.524   1_455 S
C1574  H1745   1.110   1_455 S
H1577  C1658   1.110   .     S
O1578  C1579   1.416   .     S
C1579  H1580   1.107   .     S
C1579  C1582   1.526   .     S
C1579  H2085   1.118   1_545 S
H1581  C1831   1.118   .     S
C1582  H2087   1.112   1_545 S
C1582  H72     1.109   1_556 S
C1582  C73     1.521   1_556 S
H1583  C1834   1.112   .     S
C1585  H1587   1.105   .     S
C1585  H1588   1.099   .     S
H1586  C73     1.103   1_556 S
C1589  N1590   1.155   .     T
C1591  N1592   1.158   .     T
C1593  N1594   1.152   .     T
C1595  N1596   1.151   .     T
C1597  O1617   1.309   .     A
C1597  C1608   1.484   .     S
C1597  O1619   1.310   .     A
C1598  O1618   1.308   .     A
C1598  C1607   1.458   .     S
C1598  O1620   1.296   .     A
C1599  O1621   1.308   .     A
C1599  C1601   1.491   .     S
C1599  O1623   1.309   .     A
C1600  O1624   1.311   .     A
C1600  C1602   1.474   .     S
C1600  O1622   1.295   .     A
C1602  C1685   1.368   .     S
C1602  O1720   1.392   .     S
C1603  C1608   1.409   .     A
C1603  C1647   1.440   .     S
C1603  C2109   1.406   1_545 S
C1604  C1649   1.443   .     S
C1604  C1607   1.411   .     A
C1604  C1858   1.401   .     S
C1605  O1651   1.396   .     S
C1605  C1607   1.398   .     A
C1605  C1855   1.406   .     S
C1606  O1662   1.377   .     S
C1606  C1608   1.418   .     A
C1606  C2108   1.401   1_545 S
C1609  C1673   1.433   .     S
C1609  N1616   1.367   .     A
C1610  C1675   1.445   .     S
C1610  N1615   1.369   .     A
C1610  C100    1.428   1_556 S
C1611  C1677   1.426   .     S
C1611  N1615   1.366   .     A
C1611  C97     1.432   1_556 S
C1612  C1679   1.427   .     S
C1612  N1616   1.371   .     A
Cu1613 O1620   1.979   .     S
Cu1613 O1617   1.988   .     S
Cu1613 Cu1614  2.712   .     S
Cu1613 O1624   2.019   .     S
Cu1613 O1621   2.020   .     S
Cu1613 N1615   2.038   .     S
Cu1614 O1622   2.020   .     S
Cu1614 N1616   2.038   .     S
Cu1614 O1619   1.979   .     S
Cu1614 O1618   1.988   .     S
Cu1614 O1623   2.019   .     S
O1625  C1685   1.405   .     S
O1625  C1710   1.413   .     S
C1626  C1629   1.533   .     S
C1626  H1628   1.104   .     S
H1627  C1710   1.106   .     S
C1629  C1632   1.520   .     S
C1629  H1631   1.107   .     S
C1629  H1630   1.110   .     S
C1632  H1633   1.107   .     S
C1632  H1634   1.110   .     S
H1635  C120    1.111   1_556 S
C1637  H1639   1.107   .     S
C1637  C1640   1.533   .     S
C1637  O1720   1.423   .     S
C1637  H1722   1.103   .     S
C1640  C1643   1.533   .     S
C1640  H1642   1.107   .     S
C1640  H1725   1.110   .     S
C1643  H1644   1.105   .     S
C1643  H133    1.108   1_556 S
C1643  H1730   1.106   .     S
C1647  N1648   1.157   .     T
C1649  N1650   1.156   .     T
O1651  C1652   1.414   .     S
C1652  H1654   1.110   .     S
C1652  H1905   1.105   .     S
C1652  C1907   1.528   .     S
H1653  C2156   1.105   1_545 S
C1655  H1656   1.108   .     S
C1655  H1657   1.112   .     S
C1655  C2156   1.528   1_545 S
C1655  C1742   1.524   .     S
C1658  H1659   1.110   .     S
C1658  H1660   1.108   .     S
H1661  C1742   1.110   .     S
O1662  C1663   1.416   .     S
C1663  H1664   1.107   .     S
C1663  C1666   1.526   .     S
C1663  H2169   1.118   1_545 S
H1665  C1915   1.118   .     S
C1666  H2171   1.112   1_545 S
C1666  H156    1.109   1_556 S
C1666  C157    1.521   1_556 S
H1667  C1918   1.112   .     S
C1669  H1671   1.105   .     S
C1669  H1672   1.099   .     S
H1670  C157    1.103   1_556 S
C1673  N1674   1.155   .     T
C1675  N1676   1.158   .     T
C1677  N1678   1.152   .     T
C1679  N1680   1.151   .     T
C1681  O1701   1.309   .     A
C1681  C1692   1.484   .     S
C1681  O1703   1.310   .     A
C1682  O1702   1.308   .     A
C1682  C1691   1.458   .     S
C1682  O1704   1.296   .     A
C1683  O1705   1.308   .     A
C1683  C1685   1.491   .     S
C1683  O1707   1.309   .     A
C1684  O1708   1.311   .     A
C1684  C1686   1.474   .     S
C1684  O1706   1.295   .     A
C1686  C1517   1.368   1_655 S
C1686  O1552   1.392   1_655 S
C1687  C1692   1.409   .     A
C1687  C1731   1.440   .     S
C1687  C2193   1.406   1_545 S
C1688  C1733   1.443   .     S
C1688  C1691   1.411   .     A
C1688  C1942   1.401   .     S
C1689  O1735   1.396   .     S
C1689  C1691   1.398   .     A
C1689  C1939   1.406   .     S
C1690  O1746   1.377   .     S
C1690  C1692   1.418   .     A
C1690  C2192   1.401   1_545 S
C1693  C1757   1.433   .     S
C1693  N1700   1.367   .     A
C1694  C1759   1.445   .     S
C1694  N1699   1.369   .     A
C1694  C184    1.428   1_556 S
C1695  C1761   1.426   .     S
C1695  N1699   1.366   .     A
C1695  C181    1.432   1_556 S
C1696  C1763   1.427   .     S
C1696  N1700   1.371   .     A
Cu1697 O1704   1.979   .     S
Cu1697 O1701   1.988   .     S
Cu1697 Cu1698  2.712   .     S
Cu1697 O1708   2.019   .     S
Cu1697 O1705   2.020   .     S
Cu1697 N1699   2.038   .     S
Cu1698 O1706   2.020   .     S
Cu1698 N1700   2.038   .     S
Cu1698 O1703   1.979   .     S
Cu1698 O1702   1.988   .     S
Cu1698 O1707   2.019   .     S
O1709  C1517   1.405   1_655 S
O1709  C1542   1.413   1_655 S
C1710  C1713   1.533   .     S
C1710  H1712   1.104   .     S
H1711  C1542   1.106   1_655 S
C1713  C1716   1.520   .     S
C1713  H1715   1.107   .     S
C1713  H1714   1.110   .     S
C1716  H1717   1.107   .     S
C1716  H1718   1.110   .     S
H1719  C204    1.111   1_556 S
C1721  H1723   1.107   .     S
C1721  C1724   1.533   .     S
C1721  O1552   1.423   1_655 S
C1721  H1554   1.103   1_655 S
C1724  C1727   1.533   .     S
C1724  H1726   1.107   .     S
C1724  H1557   1.110   1_655 S
C1727  H1728   1.105   .     S
C1727  H217    1.108   1_556 S
C1727  H1562   1.106   1_655 S
C1731  N1732   1.157   .     T
C1733  N1734   1.156   .     T
O1735  C1736   1.414   .     S
C1736  H1738   1.110   .     S
C1736  H1989   1.105   .     S
C1736  C1991   1.528   .     S
H1737  C2240   1.105   1_545 S
C1739  H1740   1.108   .     S
C1739  H1741   1.112   .     S
C1739  C2240   1.528   1_545 S
C1739  C1574   1.524   1_655 S
C1742  H1743   1.110   .     S
C1742  H1744   1.108   .     S
H1745  C1574   1.110   1_655 S
O1746  C1747   1.416   .     S
C1747  H1748   1.107   .     S
C1747  C1750   1.526   .     S
C1747  H2253   1.118   1_545 S
H1749  C1999   1.118   .     S
C1750  H2255   1.112   1_545 S
C1750  H240    1.109   1_556 S
C1750  C241    1.521   1_556 S
H1751  C2002   1.112   .     S
C1753  H1755   1.105   .     S
C1753  H1756   1.099   .     S
H1754  C241    1.103   1_556 S
C1757  N1758   1.155   .     T
C1759  N1760   1.158   .     T
C1761  N1762   1.152   .     T
C1763  N1764   1.151   .     T
C1765  O1785   1.309   .     A
C1765  C1776   1.484   .     S
C1765  O1787   1.310   .     A
C1766  O1786   1.308   .     A
C1766  C1775   1.458   .     S
C1766  O1788   1.296   .     A
C1767  O1789   1.308   .     A
C1767  C1769   1.491   .     S
C1767  O1791   1.309   .     A
C1768  O1792   1.311   .     A
C1768  C1770   1.474   .     S
C1768  O1790   1.295   .     A
C1769  C1938   1.368   1_455 S
C1769  O1961   1.405   1_455 S
C1770  C1853   1.368   .     S
C1770  O1888   1.392   .     S
C1771  C1776   1.409   .     A
C1771  C1815   1.440   .     S
C1772  C1817   1.443   .     S
C1772  C1775   1.411   .     A
C1772  C2026   1.401   .     S
C1773  O1819   1.396   .     S
C1773  C1775   1.398   .     A
C1773  C2023   1.406   .     S
C1774  O1830   1.377   .     S
C1774  C1776   1.418   .     A
C1777  C1841   1.433   .     S
C1777  N1784   1.367   .     A
C1778  C1843   1.445   .     S
C1778  N1783   1.369   .     A
C1778  C268    1.428   1_556 S
C1779  C1845   1.426   .     S
C1779  N1783   1.366   .     A
C1779  C265    1.432   1_556 S
C1780  C1847   1.427   .     S
C1780  N1784   1.371   .     A
Cu1781 O1788   1.979   .     S
Cu1781 O1785   1.988   .     S
Cu1781 Cu1782  2.712   .     S
Cu1781 O1792   2.019   .     S
Cu1781 O1789   2.020   .     S
Cu1781 N1783   2.038   .     S
Cu1782 O1790   2.020   .     S
Cu1782 N1784   2.038   .     S
Cu1782 O1787   1.979   .     S
Cu1782 O1786   1.988   .     S
Cu1782 O1791   2.019   .     S
O1793  C1853   1.405   .     S
O1793  C1878   1.413   .     S
C1794  C1797   1.533   .     S
C1794  H1796   1.104   .     S
C1794  O1961   1.413   1_455 S
C1794  H1963   1.106   1_455 S
H1795  C1878   1.106   .     S
C1797  C1800   1.520   .     S
C1797  H1799   1.107   .     S
C1797  H1798   1.110   .     S
C1800  H1801   1.107   .     S
C1800  H1802   1.110   .     S
H1803  C288    1.111   1_556 S
O1804  C1938   1.392   1_455 S
O1804  C1973   1.423   1_455 S
C1805  H1807   1.107   .     S
C1805  C1808   1.533   .     S
C1805  O1888   1.423   .     S
C1805  H1890   1.103   .     S
H1806  C1973   1.103   1_455 S
C1808  C1811   1.533   .     S
C1808  H1810   1.107   .     S
C1808  H1893   1.110   .     S
H1809  C1976   1.110   1_455 S
C1811  H1812   1.105   .     S
C1811  H301    1.108   1_556 S
C1811  H1898   1.106   .     S
H1814  C1979   1.106   1_455 S
C1815  N1816   1.157   .     T
C1817  N1818   1.156   .     T
O1819  C1820   1.414   .     S
C1820  H1822   1.110   .     S
C1820  H2073   1.105   .     S
C1820  C2075   1.528   .     S
C1823  H1824   1.108   .     S
C1823  H1825   1.112   .     S
C1823  C1910   1.524   .     S
C1826  H1827   1.110   .     S
C1826  H1828   1.108   .     S
C1826  C1991   1.524   1_455 S
C1826  H1997   1.110   1_455 S
H1829  C1910   1.110   .     S
O1830  C1831   1.416   .     S
C1831  H1832   1.107   .     S
C1831  C1834   1.526   .     S
H1833  C2083   1.118   .     S
C1834  H324    1.109   1_556 S
C1834  C325    1.521   1_556 S
H1835  C2086   1.112   .     S
C1837  H1839   1.105   .     S
C1837  H1840   1.099   .     S
H1838  C325    1.103   1_556 S
C1841  N1842   1.155   .     T
C1843  N1844   1.158   .     T
C1845  N1846   1.152   .     T
C1847  N1848   1.151   .     T
C1849  O1869   1.309   .     A
C1849  C1860   1.484   .     S
C1849  O1871   1.310   .     A
C1850  O1870   1.308   .     A
C1850  C1859   1.458   .     S
C1850  O1872   1.296   .     A
C1851  O1873   1.308   .     A
C1851  C1853   1.491   .     S
C1851  O1875   1.309   .     A
C1852  O1876   1.311   .     A
C1852  C1854   1.474   .     S
C1852  O1874   1.295   .     A
C1854  C1937   1.368   .     S
C1854  O1972   1.392   .     S
C1855  C1860   1.409   .     A
C1855  C1899   1.440   .     S
C1856  C1901   1.443   .     S
C1856  C1859   1.411   .     A
C1856  C2110   1.401   .     S
C1857  O1903   1.396   .     S
C1857  C1859   1.398   .     A
C1857  C2107   1.406   .     S
C1858  O1914   1.377   .     S
C1858  C1860   1.418   .     A
C1861  C1925   1.433   .     S
C1861  N1868   1.367   .     A
C1862  C1927   1.445   .     S
C1862  N1867   1.369   .     A
C1862  C352    1.428   1_556 S
C1863  C1929   1.426   .     S
C1863  N1867   1.366   .     A
C1863  C349    1.432   1_556 S
C1864  C1931   1.427   .     S
C1864  N1868   1.371   .     A
Cu1865 O1872   1.979   .     S
Cu1865 O1869   1.988   .     S
Cu1865 Cu1866  2.712   .     S
Cu1865 O1876   2.019   .     S
Cu1865 O1873   2.020   .     S
Cu1865 N1867   2.038   .     S
Cu1866 O1874   2.020   .     S
Cu1866 N1868   2.038   .     S
Cu1866 O1871   1.979   .     S
Cu1866 O1870   1.988   .     S
Cu1866 O1875   2.019   .     S
O1877  C1937   1.405   .     S
O1877  C1962   1.413   .     S
C1878  C1881   1.533   .     S
C1878  H1880   1.104   .     S
H1879  C1962   1.106   .     S
C1881  C1884   1.520   .     S
C1881  H1883   1.107   .     S
C1881  H1882   1.110   .     S
C1884  H1885   1.107   .     S
C1884  H1886   1.110   .     S
H1887  C372    1.111   1_556 S
C1889  H1891   1.107   .     S
C1889  C1892   1.533   .     S
C1889  O1972   1.423   .     S
C1889  H1974   1.103   .     S
C1892  C1895   1.533   .     S
C1892  H1894   1.107   .     S
C1892  H1977   1.110   .     S
C1895  H1896   1.105   .     S
C1895  H385    1.108   1_556 S
C1895  H1982   1.106   .     S
C1899  N1900   1.157   .     T
C1901  N1902   1.156   .     T
O1903  C1904   1.414   .     S
C1904  H1906   1.110   .     S
C1904  H2157   1.105   .     S
C1904  C2159   1.528   .     S
C1907  H1908   1.108   .     S
C1907  H1909   1.112   .     S
C1907  C1994   1.524   .     S
C1910  H1911   1.110   .     S
C1910  H1912   1.108   .     S
H1913  C1994   1.110   .     S
O1914  C1915   1.416   .     S
C1915  H1916   1.107   .     S
C1915  C1918   1.526   .     S
H1917  C2167   1.118   .     S
C1918  H408    1.109   1_556 S
C1918  C409    1.521   1_556 S
H1919  C2170   1.112   .     S
C1921  H1923   1.105   .     S
C1921  H1924   1.099   .     S
H1922  C409    1.103   1_556 S
C1925  N1926   1.155   .     T
C1927  N1928   1.158   .     T
C1929  N1930   1.152   .     T
C1931  N1932   1.151   .     T
C1933  O1953   1.309   .     A
C1933  C1944   1.484   .     S
C1933  O1955   1.310   .     A
C1934  O1954   1.308   .     A
C1934  C1943   1.458   .     S
C1934  O1956   1.296   .     A
C1935  O1957   1.308   .     A
C1935  C1937   1.491   .     S
C1935  O1959   1.309   .     A
C1936  O1960   1.311   .     A
C1936  C1938   1.474   .     S
C1936  O1958   1.295   .     A
C1938  C1769   1.368   1_655 S
C1938  O1804   1.392   1_655 S
C1939  C1944   1.409   .     A
C1939  C1983   1.440   .     S
C1940  C1985   1.443   .     S
C1940  C1943   1.411   .     A
C1940  C2194   1.401   .     S
C1941  O1987   1.396   .     S
C1941  C1943   1.398   .     A
C1941  C2191   1.406   .     S
C1942  O1998   1.377   .     S
C1942  C1944   1.418   .     A
C1945  C2009   1.433   .     S
C1945  N1952   1.367   .     A
C1946  C2011   1.445   .     S
C1946  N1951   1.369   .     A
C1946  C436    1.428   1_556 S
C1947  C2013   1.426   .     S
C1947  N1951   1.366   .     A
C1947  C433    1.432   1_556 S
C1948  C2015   1.427   .     S
C1948  N1952   1.371   .     A
Cu1949 O1956   1.979   .     S
Cu1949 O1953   1.988   .     S
Cu1949 Cu1950  2.712   .     S
Cu1949 O1960   2.019   .     S
Cu1949 O1957   2.020   .     S
Cu1949 N1951   2.038   .     S
Cu1950 O1958   2.020   .     S
Cu1950 N1952   2.038   .     S
Cu1950 O1955   1.979   .     S
Cu1950 O1954   1.988   .     S
Cu1950 O1959   2.019   .     S
O1961  C1769   1.405   1_655 S
O1961  C1794   1.413   1_655 S
C1962  C1965   1.533   .     S
C1962  H1964   1.104   .     S
H1963  C1794   1.106   1_655 S
C1965  C1968   1.520   .     S
C1965  H1967   1.107   .     S
C1965  H1966   1.110   .     S
C1968  H1969   1.107   .     S
C1968  H1970   1.110   .     S
H1971  C456    1.111   1_556 S
C1973  H1975   1.107   .     S
C1973  C1976   1.533   .     S
C1973  O1804   1.423   1_655 S
C1973  H1806   1.103   1_655 S
C1976  C1979   1.533   .     S
C1976  H1978   1.107   .     S
C1976  H1809   1.110   1_655 S
C1979  H1980   1.105   .     S
C1979  H469    1.108   1_556 S
C1979  H1814   1.106   1_655 S
C1983  N1984   1.157   .     T
C1985  N1986   1.156   .     T
O1987  C1988   1.414   .     S
C1988  H1990   1.110   .     S
C1988  H2241   1.105   .     S
C1988  C2243   1.528   .     S
C1991  H1992   1.108   .     S
C1991  H1993   1.112   .     S
C1991  C1826   1.524   1_655 S
C1994  H1995   1.110   .     S
C1994  H1996   1.108   .     S
H1997  C1826   1.110   1_655 S
O1998  C1999   1.416   .     S
C1999  H2000   1.107   .     S
C1999  C2002   1.526   .     S
H2001  C2251   1.118   .     S
C2002  H492    1.109   1_556 S
C2002  C493    1.521   1_556 S
H2003  C2254   1.112   .     S
C2005  H2007   1.105   .     S
C2005  H2008   1.099   .     S
H2006  C493    1.103   1_556 S
C2009  N2010   1.155   .     T
C2011  N2012   1.158   .     T
C2013  N2014   1.152   .     T
C2015  N2016   1.151   .     T
C2017  O2037   1.309   .     A
C2017  C2028   1.484   .     S
C2017  O2039   1.310   .     A
C2018  O2038   1.308   .     A
C2018  C2027   1.458   .     S
C2018  O2040   1.296   .     A
C2019  O2041   1.308   .     A
C2019  C2021   1.491   .     S
C2019  O2043   1.309   .     A
C2020  O2044   1.311   .     A
C2020  C2022   1.474   .     S
C2020  O2042   1.295   .     A
C2021  C2190   1.368   1_455 S
C2021  O2213   1.405   1_455 S
C2022  C2105   1.368   .     S
C2022  O2140   1.392   .     S
C2023  C2028   1.409   .     A
C2023  C2067   1.440   .     S
C2024  C2069   1.443   .     S
C2024  C2027   1.411   .     A
C2024  C1522   1.401   1_565 S
C2025  O2071   1.396   .     S
C2025  C2027   1.398   .     A
C2025  C1519   1.406   1_565 S
C2026  O2082   1.377   .     S
C2026  C2028   1.418   .     A
C2029  C2093   1.433   .     S
C2029  N2036   1.367   .     A
C2030  C2095   1.445   .     S
C2030  N2035   1.369   .     A
C2030  C520    1.428   1_556 S
C2031  C2097   1.426   .     S
C2031  N2035   1.366   .     A
C2031  C517    1.432   1_556 S
C2032  C2099   1.427   .     S
C2032  N2036   1.371   .     A
Cu2033 O2040   1.979   .     S
Cu2033 O2037   1.988   .     S
Cu2033 Cu2034  2.712   .     S
Cu2033 O2044   2.019   .     S
Cu2033 O2041   2.020   .     S
Cu2033 N2035   2.038   .     S
Cu2034 O2042   2.020   .     S
Cu2034 N2036   2.038   .     S
Cu2034 O2039   1.979   .     S
Cu2034 O2038   1.988   .     S
Cu2034 O2043   2.019   .     S
O2045  C2105   1.405   .     S
O2045  C2130   1.413   .     S
C2046  C2049   1.533   .     S
C2046  H2048   1.104   .     S
C2046  O2213   1.413   1_455 S
C2046  H2215   1.106   1_455 S
H2047  C2130   1.106   .     S
C2049  C2052   1.520   .     S
C2049  H2051   1.107   .     S
C2049  H2050   1.110   .     S
C2052  H2053   1.107   .     S
C2052  H2054   1.110   .     S
H2055  C540    1.111   1_556 S
O2056  C2190   1.392   1_455 S
O2056  C2225   1.423   1_455 S
C2057  H2059   1.107   .     S
C2057  C2060   1.533   .     S
C2057  O2140   1.423   .     S
C2057  H2142   1.103   .     S
H2058  C2225   1.103   1_455 S
C2060  C2063   1.533   .     S
C2060  H2062   1.107   .     S
C2060  H2145   1.110   .     S
H2061  C2228   1.110   1_455 S
C2063  H2064   1.105   .     S
C2063  H553    1.108   1_556 S
C2063  H2150   1.106   .     S
H2066  C2231   1.106   1_455 S
C2067  N2068   1.157   .     T
C2069  N2070   1.156   .     T
O2071  C2072   1.414   .     S
C2072  H2074   1.110   .     S
C2072  H1569   1.105   1_565 S
C2072  C1571   1.528   1_565 S
C2075  H2076   1.108   .     S
C2075  H2077   1.112   .     S
C2075  C2162   1.524   .     S
C2078  H2079   1.110   .     S
C2078  H2080   1.108   .     S
C2078  C2243   1.524   1_455 S
C2078  H2249   1.110   1_455 S
H2081  C2162   1.110   .     S
O2082  C2083   1.416   .     S
C2083  H2084   1.107   .     S
C2083  C2086   1.526   .     S
H2085  C1579   1.118   1_565 S
C2086  H576    1.109   1_556 S
C2086  C577    1.521   1_556 S
H2087  C1582   1.112   1_565 S
C2089  H2091   1.105   .     S
C2089  H2092   1.099   .     S
H2090  C577    1.103   1_556 S
C2093  N2094   1.155   .     T
C2095  N2096   1.158   .     T
C2097  N2098   1.152   .     T
C2099  N2100   1.151   .     T
C2101  O2121   1.309   .     A
C2101  C2112   1.484   .     S
C2101  O2123   1.310   .     A
C2102  O2122   1.308   .     A
C2102  C2111   1.458   .     S
C2102  O2124   1.296   .     A
C2103  O2125   1.308   .     A
C2103  C2105   1.491   .     S
C2103  O2127   1.309   .     A
C2104  O2128   1.311   .     A
C2104  C2106   1.474   .     S
C2104  O2126   1.295   .     A
C2106  C2189   1.368   .     S
C2106  O2224   1.392   .     S
C2107  C2112   1.409   .     A
C2107  C2151   1.440   .     S
C2108  C2153   1.443   .     S
C2108  C2111   1.411   .     A
C2108  C1606   1.401   1_565 S
C2109  O2155   1.396   .     S
C2109  C2111   1.398   .     A
C2109  C1603   1.406   1_565 S
C2110  O2166   1.377   .     S
C2110  C2112   1.418   .     A
C2113  C2177   1.433   .     S
C2113  N2120   1.367   .     A
C2114  C2179   1.445   .     S
C2114  N2119   1.369   .     A
C2114  C604    1.428   1_556 S
C2115  C2181   1.426   .     S
C2115  N2119   1.366   .     A
C2115  C601    1.432   1_556 S
C2116  C2183   1.427   .     S
C2116  N2120   1.371   .     A
Cu2117 O2124   1.979   .     S
Cu2117 O2121   1.988   .     S
Cu2117 Cu2118  2.712   .     S
Cu2117 O2128   2.019   .     S
Cu2117 O2125   2.020   .     S
Cu2117 N2119   2.038   .     S
Cu2118 O2126   2.020   .     S
Cu2118 N2120   2.038   .     S
Cu2118 O2123   1.979   .     S
Cu2118 O2122   1.988   .     S
Cu2118 O2127   2.019   .     S
O2129  C2189   1.405   .     S
O2129  C2214   1.413   .     S
C2130  C2133   1.533   .     S
C2130  H2132   1.104   .     S
H2131  C2214   1.106   .     S
C2133  C2136   1.520   .     S
C2133  H2135   1.107   .     S
C2133  H2134   1.110   .     S
C2136  H2137   1.107   .     S
C2136  H2138   1.110   .     S
H2139  C624    1.111   1_556 S
C2141  H2143   1.107   .     S
C2141  C2144   1.533   .     S
C2141  O2224   1.423   .     S
C2141  H2226   1.103   .     S
C2144  C2147   1.533   .     S
C2144  H2146   1.107   .     S
C2144  H2229   1.110   .     S
C2147  H2148   1.105   .     S
C2147  H637    1.108   1_556 S
C2147  H2234   1.106   .     S
C2151  N2152   1.157   .     T
C2153  N2154   1.156   .     T
O2155  C2156   1.414   .     S
C2156  H2158   1.110   .     S
C2156  H1653   1.105   1_565 S
C2156  C1655   1.528   1_565 S
C2159  H2160   1.108   .     S
C2159  H2161   1.112   .     S
C2159  C2246   1.524   .     S
C2162  H2163   1.110   .     S
C2162  H2164   1.108   .     S
H2165  C2246   1.110   .     S
O2166  C2167   1.416   .     S
C2167  H2168   1.107   .     S
C2167  C2170   1.526   .     S
H2169  C1663   1.118   1_565 S
C2170  H660    1.109   1_556 S
C2170  C661    1.521   1_556 S
H2171  C1666   1.112   1_565 S
C2173  H2175   1.105   .     S
C2173  H2176   1.099   .     S
H2174  C661    1.103   1_556 S
C2177  N2178   1.155   .     T
C2179  N2180   1.158   .     T
C2181  N2182   1.152   .     T
C2183  N2184   1.151   .     T
C2185  O2205   1.309   .     A
C2185  C2196   1.484   .     S
C2185  O2207   1.310   .     A
C2186  O2206   1.308   .     A
C2186  C2195   1.458   .     S
C2186  O2208   1.296   .     A
C2187  O2209   1.308   .     A
C2187  C2189   1.491   .     S
C2187  O2211   1.309   .     A
C2188  O2212   1.311   .     A
C2188  C2190   1.474   .     S
C2188  O2210   1.295   .     A
C2190  C2021   1.368   1_655 S
C2190  O2056   1.392   1_655 S
C2191  C2196   1.409   .     A
C2191  C2235   1.440   .     S
C2192  C2237   1.443   .     S
C2192  C2195   1.411   .     A
C2192  C1690   1.401   1_565 S
C2193  O2239   1.396   .     S
C2193  C2195   1.398   .     A
C2193  C1687   1.406   1_565 S
C2194  O2250   1.377   .     S
C2194  C2196   1.418   .     A
C2197  C2261   1.433   .     S
C2197  N2204   1.367   .     A
C2198  C2263   1.445   .     S
C2198  N2203   1.369   .     A
C2198  C688    1.428   1_556 S
C2199  C2265   1.426   .     S
C2199  N2203   1.366   .     A
C2199  C685    1.432   1_556 S
C2200  C2267   1.427   .     S
C2200  N2204   1.371   .     A
Cu2201 O2208   1.979   .     S
Cu2201 O2205   1.988   .     S
Cu2201 Cu2202  2.712   .     S
Cu2201 O2212   2.019   .     S
Cu2201 O2209   2.020   .     S
Cu2201 N2203   2.038   .     S
Cu2202 O2210   2.020   .     S
Cu2202 N2204   2.038   .     S
Cu2202 O2207   1.979   .     S
Cu2202 O2206   1.988   .     S
Cu2202 O2211   2.019   .     S
O2213  C2021   1.405   1_655 S
O2213  C2046   1.413   1_655 S
C2214  C2217   1.533   .     S
C2214  H2216   1.104   .     S
H2215  C2046   1.106   1_655 S
C2217  C2220   1.520   .     S
C2217  H2219   1.107   .     S
C2217  H2218   1.110   .     S
C2220  H2221   1.107   .     S
C2220  H2222   1.110   .     S
H2223  C708    1.111   1_556 S
C2225  H2227   1.107   .     S
C2225  C2228   1.533   .     S
C2225  O2056   1.423   1_655 S
C2225  H2058   1.103   1_655 S
C2228  C2231   1.533   .     S
C2228  H2230   1.107   .     S
C2228  H2061   1.110   1_655 S
C2231  H2232   1.105   .     S
C2231  H721    1.108   1_556 S
C2231  H2066   1.106   1_655 S
C2235  N2236   1.157   .     T
C2237  N2238   1.156   .     T
O2239  C2240   1.414   .     S
C2240  H2242   1.110   .     S
C2240  H1737   1.105   1_565 S
C2240  C1739   1.528   1_565 S
C2243  H2244   1.108   .     S
C2243  H2245   1.112   .     S
C2243  C2078   1.524   1_655 S
C2246  H2247   1.110   .     S
C2246  H2248   1.108   .     S
H2249  C2078   1.110   1_655 S
O2250  C2251   1.416   .     S
C2251  H2252   1.107   .     S
C2251  C2254   1.526   .     S
H2253  C1747   1.118   1_565 S
C2254  H744    1.109   1_556 S
C2254  C745    1.521   1_556 S
H2255  C1750   1.112   1_565 S
C2257  H2259   1.105   .     S
C2257  H2260   1.099   .     S
H2258  C745    1.103   1_556 S
C2261  N2262   1.155   .     T
C2263  N2264   1.158   .     T
C2265  N2266   1.152   .     T
C2267  N2268   1.151   .     T
