data_str_m2_o1_o10_pcu_sym.32
_audit_creation_date              2020-01-03
_audit_creation_method            'Materials Studio'
_symmetry_space_group_name_H-M    'P1'
_symmetry_Int_Tables_number       1
_symmetry_cell_setting            triclinic
loop_
_symmetry_equiv_pos_as_xyz
  x,y,z
_cell_length_a                    26.1448
_cell_length_b                    32.2658
_cell_length_c                    28.8374
_cell_angle_alpha                 89.7044
_cell_angle_beta                  96.4648
_cell_angle_gamma                 92.1217
loop_
_atom_site_label
_atom_site_type_symbol
_atom_site_fract_x
_atom_site_fract_y
_atom_site_fract_z
_atom_site_U_iso_or_equiv
_atom_site_adp_type
_atom_site_occupancy
C1     C     0.16592   0.08751   0.16662   0.00000  Uiso   1.00
C2     C     0.19978   0.02290   0.19929   0.00000  Uiso   1.00
C3     C     0.16774   0.29049   0.16678   0.00000  Uiso   1.00
C4     C     0.16560   0.04285   0.16656   0.00000  Uiso   1.00
C5     C     0.13482   0.13975   0.02268   0.00000  Uiso   1.00
C6     C     0.19851   0.19359   0.31065   0.00000  Uiso   1.00
C7     C     0.13516   0.13919   0.30616   0.00000  Uiso   1.00
C8     C     0.19817   0.19415   0.02717   0.00000  Uiso   1.00
C9     C     0.10276   0.10698   0.27944   0.00000  Uiso   1.00
C10    C     0.05084   0.11406   0.26460   0.00000  Uiso   1.00
C11    C     0.01866   0.08235   0.24334   0.00000  Uiso   1.00
C12    C     0.16741   0.24582   0.16671   0.00000  Uiso   1.00
C13    C     0.03758   0.04286   0.23846   0.00000  Uiso   1.00
C14    C     0.08832   0.03482   0.25582   0.00000  Uiso   1.00
C15    C     0.12058   0.06655   0.27698   0.00000  Uiso   1.00
C16    C     0.23058   0.22635   0.05389   0.00000  Uiso   1.00
C17    C     0.21277   0.26678   0.05636   0.00000  Uiso   1.00
C18    C     0.24502   0.29850   0.07753   0.00000  Uiso   1.00
C19    C     0.29577   0.29046   0.09487   0.00000  Uiso   1.00
C20    C     0.31469   0.25097   0.08998   0.00000  Uiso   1.00
C21    C     0.28250   0.21927   0.06873   0.00000  Uiso   1.00
C22    C     0.06828   0.16478   0.15527   0.00000  Uiso   1.00
C23    C     0.26505   0.16855   0.17806   0.00000  Uiso   1.00
C24    C     0.01333   0.15764   0.15111   0.00000  Uiso   1.00
C25    C     0.32000   0.17569   0.18222   0.00000  Uiso   1.00
C26    C     0.13200   0.02025   0.13375   0.00000  Uiso   1.00
C27    C     0.20133   0.31309   0.19958   0.00000  Uiso   1.00
C28    C     0.13355   0.31043   0.13404   0.00000  Uiso   1.00
Cu29   Cu    0.16667   0.16667   0.21355   0.00000  Uiso   1.00
Cu30   Cu    0.16667   0.16666   0.11978   0.00000  Uiso   1.00
H31    H     0.10764   0.29232   0.10931   0.00000  Uiso   1.00
H32    H     0.31222   0.08825   0.23125   0.00000  Uiso   1.00
H33    H     0.01264   0.01831   0.22208   0.00000  Uiso   1.00
H34    H     0.10262   0.00398   0.25306   0.00000  Uiso   1.00
H35    H     0.15956   0.05978   0.29105   0.00000  Uiso   1.00
H36    H     0.17378   0.27355   0.04230   0.00000  Uiso   1.00
H37    H     0.23073   0.32935   0.08029   0.00000  Uiso   1.00
H38    H     0.32071   0.31501   0.11126   0.00000  Uiso   1.00
H39    H     0.02113   0.24507   0.10208   0.00000  Uiso   1.00
H40    H     0.29811   0.18940   0.06301   0.00000  Uiso   1.00
H41    H     0.22569   0.04101   0.22403   0.00000  Uiso   1.00
H42    H     0.01593   0.11737   0.10130   0.00000  Uiso   1.00
H43    H     0.31740   0.21596   0.23204   0.00000  Uiso   1.00
H44    H     0.07668   0.02022   0.08253   0.00000  Uiso   1.00
H45    H     0.25665   0.31312   0.25080   0.00000  Uiso   1.00
H46    H     0.07708   0.09894   0.02377   0.00000  Uiso   1.00
H47    H     0.25622   0.23442   0.30956   0.00000  Uiso   1.00
H48    H     0.03522   0.14393   0.27031   0.00000  Uiso   1.00
N49    N     0.16668   0.16668   0.28403   0.00000  Uiso   1.00
N50    N     0.16665   0.16666   0.04931   0.00000  Uiso   1.00
O51    O     0.16666   0.10655   0.20625   0.00000  Uiso   1.00
O52    O     0.01053   0.20386   0.21463   0.00000  Uiso   1.00
O53    O     0.09731   0.04078   0.10295   0.00000  Uiso   1.00
O54    O     0.23602   0.29255   0.23039   0.00000  Uiso   1.00
O55    O     0.10319   0.11355   0.04580   0.00000  Uiso   1.00
O56    O     0.23014   0.21979   0.28754   0.00000  Uiso   1.00
O57    O     0.16667   0.22678   0.12709   0.00000  Uiso   1.00
O58    O     0.16666   0.10654   0.12706   0.00000  Uiso   1.00
O59    O     0.16667   0.22679   0.20628   0.00000  Uiso   1.00
O60    O     0.09161   0.16667   0.19712   0.00000  Uiso   1.00
O61    O     0.24172   0.16666   0.13621   0.00000  Uiso   1.00
O62    O     0.09161   0.16666   0.11793   0.00000  Uiso   1.00
O63    O     0.24172   0.16667   0.21540   0.00000  Uiso   1.00
O64    O     0.32281   0.12947   0.11870   0.00000  Uiso   1.00
C65    C     0.49925   0.08751   0.16662   0.00000  Uiso   1.00
C66    C     0.53311   0.02290   0.19929   0.00000  Uiso   1.00
C67    C     0.50107   0.29049   0.16678   0.00000  Uiso   1.00
C68    C     0.49893   0.04285   0.16656   0.00000  Uiso   1.00
C69    C     0.46815   0.13975   0.02268   0.00000  Uiso   1.00
C70    C     0.53185   0.19359   0.31065   0.00000  Uiso   1.00
C71    C     0.46850   0.13919   0.30616   0.00000  Uiso   1.00
C72    C     0.53150   0.19415   0.02717   0.00000  Uiso   1.00
C73    C     0.43609   0.10698   0.27944   0.00000  Uiso   1.00
C74    C     0.38417   0.11406   0.26460   0.00000  Uiso   1.00
C75    C     0.35199   0.08235   0.24334   0.00000  Uiso   1.00
C76    C     0.50075   0.24582   0.16671   0.00000  Uiso   1.00
C77    C     0.37091   0.04286   0.23846   0.00000  Uiso   1.00
C78    C     0.42166   0.03482   0.25582   0.00000  Uiso   1.00
C79    C     0.45391   0.06655   0.27698   0.00000  Uiso   1.00
C80    C     0.56391   0.22635   0.05389   0.00000  Uiso   1.00
C81    C     0.54610   0.26678   0.05636   0.00000  Uiso   1.00
C82    C     0.57836   0.29850   0.07753   0.00000  Uiso   1.00
C83    C     0.62911   0.29046   0.09487   0.00000  Uiso   1.00
C84    C     0.64802   0.25097   0.08998   0.00000  Uiso   1.00
C85    C     0.61584   0.21927   0.06873   0.00000  Uiso   1.00
C86    C     0.40162   0.16478   0.15527   0.00000  Uiso   1.00
C87    C     0.59838   0.16855   0.17806   0.00000  Uiso   1.00
C88    C     0.34667   0.15764   0.15111   0.00000  Uiso   1.00
C89    C     0.65333   0.17569   0.18222   0.00000  Uiso   1.00
C90    C     0.46534   0.02025   0.13375   0.00000  Uiso   1.00
C91    C     0.53466   0.31309   0.19958   0.00000  Uiso   1.00
C92    C     0.46689   0.31043   0.13404   0.00000  Uiso   1.00
Cu93   Cu    0.50000   0.16667   0.21355   0.00000  Uiso   1.00
Cu94   Cu    0.50000   0.16666   0.11978   0.00000  Uiso   1.00
H95    H     0.44097   0.29232   0.10931   0.00000  Uiso   1.00
H96    H     0.64555   0.08825   0.23125   0.00000  Uiso   1.00
H97    H     0.34597   0.01831   0.22208   0.00000  Uiso   1.00
H98    H     0.43595   0.00398   0.25306   0.00000  Uiso   1.00
H99    H     0.49289   0.05978   0.29105   0.00000  Uiso   1.00
H100   H     0.50711   0.27355   0.04230   0.00000  Uiso   1.00
H101   H     0.56406   0.32935   0.08029   0.00000  Uiso   1.00
H102   H     0.65405   0.31501   0.11126   0.00000  Uiso   1.00
H103   H     0.35446   0.24507   0.10208   0.00000  Uiso   1.00
H104   H     0.63145   0.18940   0.06301   0.00000  Uiso   1.00
H105   H     0.55903   0.04101   0.22403   0.00000  Uiso   1.00
H106   H     0.34926   0.11737   0.10130   0.00000  Uiso   1.00
H107   H     0.65074   0.21596   0.23204   0.00000  Uiso   1.00
H108   H     0.41001   0.02022   0.08253   0.00000  Uiso   1.00
H109   H     0.58998   0.31312   0.25080   0.00000  Uiso   1.00
H110   H     0.41041   0.09894   0.02377   0.00000  Uiso   1.00
H111   H     0.58955   0.23442   0.30956   0.00000  Uiso   1.00
H112   H     0.36856   0.14393   0.27031   0.00000  Uiso   1.00
N113   N     0.50001   0.16668   0.28403   0.00000  Uiso   1.00
N114   N     0.49999   0.16666   0.04931   0.00000  Uiso   1.00
O115   O     0.50000   0.10655   0.20625   0.00000  Uiso   1.00
O116   O     0.34386   0.20386   0.21463   0.00000  Uiso   1.00
O117   O     0.43064   0.04078   0.10295   0.00000  Uiso   1.00
O118   O     0.56936   0.29255   0.23039   0.00000  Uiso   1.00
O119   O     0.43652   0.11355   0.04580   0.00000  Uiso   1.00
O120   O     0.56348   0.21979   0.28754   0.00000  Uiso   1.00
O121   O     0.50000   0.22678   0.12709   0.00000  Uiso   1.00
O122   O     0.50000   0.10654   0.12706   0.00000  Uiso   1.00
O123   O     0.50000   0.22679   0.20628   0.00000  Uiso   1.00
O124   O     0.42495   0.16667   0.19712   0.00000  Uiso   1.00
O125   O     0.57505   0.16666   0.13621   0.00000  Uiso   1.00
O126   O     0.42494   0.16666   0.11793   0.00000  Uiso   1.00
O127   O     0.57506   0.16667   0.21540   0.00000  Uiso   1.00
O128   O     0.65614   0.12947   0.11870   0.00000  Uiso   1.00
C129   C     0.83259   0.08751   0.16662   0.00000  Uiso   1.00
C130   C     0.86645   0.02290   0.19929   0.00000  Uiso   1.00
C131   C     0.83440   0.29049   0.16678   0.00000  Uiso   1.00
C132   C     0.83226   0.04285   0.16656   0.00000  Uiso   1.00
C133   C     0.80149   0.13975   0.02268   0.00000  Uiso   1.00
C134   C     0.86518   0.19359   0.31065   0.00000  Uiso   1.00
C135   C     0.80183   0.13919   0.30616   0.00000  Uiso   1.00
C136   C     0.86484   0.19415   0.02717   0.00000  Uiso   1.00
C137   C     0.76943   0.10698   0.27944   0.00000  Uiso   1.00
C138   C     0.71750   0.11406   0.26460   0.00000  Uiso   1.00
C139   C     0.68532   0.08235   0.24334   0.00000  Uiso   1.00
C140   C     0.83408   0.24582   0.16671   0.00000  Uiso   1.00
C141   C     0.70424   0.04286   0.23846   0.00000  Uiso   1.00
C142   C     0.75499   0.03482   0.25582   0.00000  Uiso   1.00
C143   C     0.78724   0.06655   0.27698   0.00000  Uiso   1.00
C144   C     0.89724   0.22635   0.05389   0.00000  Uiso   1.00
C145   C     0.87943   0.26678   0.05636   0.00000  Uiso   1.00
C146   C     0.91169   0.29850   0.07753   0.00000  Uiso   1.00
C147   C     0.96244   0.29046   0.09487   0.00000  Uiso   1.00
C148   C     0.98136   0.25097   0.08998   0.00000  Uiso   1.00
C149   C     0.94917   0.21927   0.06873   0.00000  Uiso   1.00
C150   C     0.73495   0.16478   0.15527   0.00000  Uiso   1.00
C151   C     0.93172   0.16855   0.17806   0.00000  Uiso   1.00
C152   C     0.68000   0.15764   0.15111   0.00000  Uiso   1.00
C153   C     0.98667   0.17569   0.18222   0.00000  Uiso   1.00
C154   C     0.79867   0.02025   0.13375   0.00000  Uiso   1.00
C155   C     0.86800   0.31309   0.19958   0.00000  Uiso   1.00
C156   C     0.80022   0.31043   0.13404   0.00000  Uiso   1.00
Cu157  Cu    0.83333   0.16667   0.21355   0.00000  Uiso   1.00
Cu158  Cu    0.83333   0.16666   0.11978   0.00000  Uiso   1.00
H159   H     0.77431   0.29232   0.10931   0.00000  Uiso   1.00
H160   H     0.97888   0.08825   0.23125   0.00000  Uiso   1.00
H161   H     0.67931   0.01831   0.22208   0.00000  Uiso   1.00
H162   H     0.76929   0.00398   0.25306   0.00000  Uiso   1.00
H163   H     0.82623   0.05978   0.29105   0.00000  Uiso   1.00
H164   H     0.84045   0.27355   0.04230   0.00000  Uiso   1.00
H165   H     0.89740   0.32935   0.08029   0.00000  Uiso   1.00
H166   H     0.98738   0.31501   0.11126   0.00000  Uiso   1.00
H167   H     0.68779   0.24507   0.10208   0.00000  Uiso   1.00
H168   H     0.96478   0.18940   0.06301   0.00000  Uiso   1.00
H169   H     0.89236   0.04101   0.22403   0.00000  Uiso   1.00
H170   H     0.68260   0.11737   0.10130   0.00000  Uiso   1.00
H171   H     0.98407   0.21596   0.23204   0.00000  Uiso   1.00
H172   H     0.74335   0.02022   0.08253   0.00000  Uiso   1.00
H173   H     0.92332   0.31312   0.25080   0.00000  Uiso   1.00
H174   H     0.74375   0.09894   0.02377   0.00000  Uiso   1.00
H175   H     0.92289   0.23442   0.30956   0.00000  Uiso   1.00
H176   H     0.70189   0.14393   0.27031   0.00000  Uiso   1.00
N177   N     0.83335   0.16668   0.28403   0.00000  Uiso   1.00
N178   N     0.83332   0.16666   0.04931   0.00000  Uiso   1.00
O179   O     0.83333   0.10655   0.20625   0.00000  Uiso   1.00
O180   O     0.67719   0.20386   0.21463   0.00000  Uiso   1.00
O181   O     0.76397   0.04078   0.10295   0.00000  Uiso   1.00
O182   O     0.90269   0.29255   0.23039   0.00000  Uiso   1.00
O183   O     0.76986   0.11355   0.04580   0.00000  Uiso   1.00
O184   O     0.89681   0.21979   0.28754   0.00000  Uiso   1.00
O185   O     0.83334   0.22678   0.12709   0.00000  Uiso   1.00
O186   O     0.83333   0.10654   0.12706   0.00000  Uiso   1.00
O187   O     0.83334   0.22679   0.20628   0.00000  Uiso   1.00
O188   O     0.75828   0.16667   0.19712   0.00000  Uiso   1.00
O189   O     0.90839   0.16666   0.13621   0.00000  Uiso   1.00
O190   O     0.75828   0.16666   0.11793   0.00000  Uiso   1.00
O191   O     0.90839   0.16667   0.21540   0.00000  Uiso   1.00
O192   O     0.98947   0.12947   0.11870   0.00000  Uiso   1.00
C193   C     0.16592   0.42084   0.16662   0.00000  Uiso   1.00
C194   C     0.19978   0.35623   0.19929   0.00000  Uiso   1.00
C195   C     0.16774   0.62382   0.16678   0.00000  Uiso   1.00
C196   C     0.16560   0.37618   0.16656   0.00000  Uiso   1.00
C197   C     0.13482   0.47308   0.02268   0.00000  Uiso   1.00
C198   C     0.19851   0.52692   0.31065   0.00000  Uiso   1.00
C199   C     0.13516   0.47252   0.30616   0.00000  Uiso   1.00
C200   C     0.19817   0.52748   0.02717   0.00000  Uiso   1.00
C201   C     0.10276   0.44032   0.27944   0.00000  Uiso   1.00
C202   C     0.05084   0.44739   0.26460   0.00000  Uiso   1.00
C203   C     0.01866   0.41568   0.24334   0.00000  Uiso   1.00
C204   C     0.16741   0.57916   0.16671   0.00000  Uiso   1.00
C205   C     0.03758   0.37619   0.23846   0.00000  Uiso   1.00
C206   C     0.08832   0.36816   0.25582   0.00000  Uiso   1.00
C207   C     0.12058   0.39988   0.27698   0.00000  Uiso   1.00
C208   C     0.23058   0.55968   0.05389   0.00000  Uiso   1.00
C209   C     0.21277   0.60011   0.05636   0.00000  Uiso   1.00
C210   C     0.24502   0.63184   0.07753   0.00000  Uiso   1.00
C211   C     0.29577   0.62380   0.09487   0.00000  Uiso   1.00
C212   C     0.31469   0.58431   0.08998   0.00000  Uiso   1.00
C213   C     0.28250   0.55260   0.06873   0.00000  Uiso   1.00
C214   C     0.06828   0.49812   0.15527   0.00000  Uiso   1.00
C215   C     0.26505   0.50188   0.17806   0.00000  Uiso   1.00
C216   C     0.01333   0.49097   0.15111   0.00000  Uiso   1.00
C217   C     0.32000   0.50903   0.18222   0.00000  Uiso   1.00
C218   C     0.13200   0.35358   0.13375   0.00000  Uiso   1.00
C219   C     0.20133   0.64642   0.19958   0.00000  Uiso   1.00
C220   C     0.13355   0.64377   0.13404   0.00000  Uiso   1.00
Cu221  Cu    0.16667   0.50001   0.21355   0.00000  Uiso   1.00
Cu222  Cu    0.16667   0.49999   0.11978   0.00000  Uiso   1.00
H223   H     0.10764   0.62565   0.10931   0.00000  Uiso   1.00
H224   H     0.31222   0.42158   0.23125   0.00000  Uiso   1.00
H225   H     0.01264   0.35165   0.22208   0.00000  Uiso   1.00
H226   H     0.10262   0.33731   0.25306   0.00000  Uiso   1.00
H227   H     0.15956   0.39312   0.29105   0.00000  Uiso   1.00
H228   H     0.17378   0.60688   0.04230   0.00000  Uiso   1.00
H229   H     0.23073   0.66269   0.08029   0.00000  Uiso   1.00
H230   H     0.32071   0.64834   0.11126   0.00000  Uiso   1.00
H231   H     0.02113   0.57840   0.10208   0.00000  Uiso   1.00
H232   H     0.29811   0.52273   0.06301   0.00000  Uiso   1.00
H233   H     0.22569   0.37435   0.22403   0.00000  Uiso   1.00
H234   H     0.01593   0.45071   0.10130   0.00000  Uiso   1.00
H235   H     0.31740   0.54929   0.23204   0.00000  Uiso   1.00
H236   H     0.07668   0.35355   0.08253   0.00000  Uiso   1.00
H237   H     0.25665   0.64645   0.25080   0.00000  Uiso   1.00
H238   H     0.07708   0.43227   0.02377   0.00000  Uiso   1.00
H239   H     0.25622   0.56776   0.30956   0.00000  Uiso   1.00
H240   H     0.03522   0.47726   0.27031   0.00000  Uiso   1.00
N241   N     0.16668   0.50001   0.28403   0.00000  Uiso   1.00
N242   N     0.16665   0.49999   0.04931   0.00000  Uiso   1.00
O243   O     0.16666   0.43989   0.20625   0.00000  Uiso   1.00
O244   O     0.01053   0.53720   0.21463   0.00000  Uiso   1.00
O245   O     0.09731   0.37411   0.10295   0.00000  Uiso   1.00
O246   O     0.23602   0.62589   0.23039   0.00000  Uiso   1.00
O247   O     0.10319   0.44688   0.04580   0.00000  Uiso   1.00
O248   O     0.23014   0.55312   0.28754   0.00000  Uiso   1.00
O249   O     0.16667   0.56011   0.12709   0.00000  Uiso   1.00
O250   O     0.16666   0.43988   0.12706   0.00000  Uiso   1.00
O251   O     0.16667   0.56012   0.20628   0.00000  Uiso   1.00
O252   O     0.09161   0.50000   0.19712   0.00000  Uiso   1.00
O253   O     0.24172   0.50000   0.13621   0.00000  Uiso   1.00
O254   O     0.09161   0.49999   0.11793   0.00000  Uiso   1.00
O255   O     0.24172   0.50001   0.21540   0.00000  Uiso   1.00
O256   O     0.32281   0.46280   0.11870   0.00000  Uiso   1.00
C257   C     0.49925   0.42084   0.16662   0.00000  Uiso   1.00
C258   C     0.53311   0.35623   0.19929   0.00000  Uiso   1.00
C259   C     0.50107   0.62382   0.16678   0.00000  Uiso   1.00
C260   C     0.49893   0.37618   0.16656   0.00000  Uiso   1.00
C261   C     0.46815   0.47308   0.02268   0.00000  Uiso   1.00
C262   C     0.53185   0.52692   0.31065   0.00000  Uiso   1.00
C263   C     0.46850   0.47252   0.30616   0.00000  Uiso   1.00
C264   C     0.53150   0.52748   0.02717   0.00000  Uiso   1.00
C265   C     0.43609   0.44032   0.27944   0.00000  Uiso   1.00
C266   C     0.38417   0.44739   0.26460   0.00000  Uiso   1.00
C267   C     0.35199   0.41568   0.24334   0.00000  Uiso   1.00
C268   C     0.50075   0.57916   0.16671   0.00000  Uiso   1.00
C269   C     0.37091   0.37619   0.23846   0.00000  Uiso   1.00
C270   C     0.42166   0.36816   0.25582   0.00000  Uiso   1.00
C271   C     0.45391   0.39988   0.27698   0.00000  Uiso   1.00
C272   C     0.56391   0.55968   0.05389   0.00000  Uiso   1.00
C273   C     0.54610   0.60011   0.05636   0.00000  Uiso   1.00
C274   C     0.57836   0.63184   0.07753   0.00000  Uiso   1.00
C275   C     0.62911   0.62380   0.09487   0.00000  Uiso   1.00
C276   C     0.64802   0.58431   0.08998   0.00000  Uiso   1.00
C277   C     0.61584   0.55260   0.06873   0.00000  Uiso   1.00
C278   C     0.40162   0.49812   0.15527   0.00000  Uiso   1.00
C279   C     0.59838   0.50188   0.17806   0.00000  Uiso   1.00
C280   C     0.34667   0.49097   0.15111   0.00000  Uiso   1.00
C281   C     0.65333   0.50903   0.18222   0.00000  Uiso   1.00
C282   C     0.46534   0.35358   0.13375   0.00000  Uiso   1.00
C283   C     0.53466   0.64642   0.19958   0.00000  Uiso   1.00
C284   C     0.46689   0.64377   0.13404   0.00000  Uiso   1.00
Cu285  Cu    0.50000   0.50001   0.21355   0.00000  Uiso   1.00
Cu286  Cu    0.50000   0.49999   0.11978   0.00000  Uiso   1.00
H287   H     0.44097   0.62565   0.10931   0.00000  Uiso   1.00
H288   H     0.64555   0.42158   0.23125   0.00000  Uiso   1.00
H289   H     0.34597   0.35165   0.22208   0.00000  Uiso   1.00
H290   H     0.43595   0.33731   0.25306   0.00000  Uiso   1.00
H291   H     0.49289   0.39312   0.29105   0.00000  Uiso   1.00
H292   H     0.50711   0.60688   0.04230   0.00000  Uiso   1.00
H293   H     0.56406   0.66269   0.08029   0.00000  Uiso   1.00
H294   H     0.65405   0.64834   0.11126   0.00000  Uiso   1.00
H295   H     0.35446   0.57840   0.10208   0.00000  Uiso   1.00
H296   H     0.63145   0.52273   0.06301   0.00000  Uiso   1.00
H297   H     0.55903   0.37435   0.22403   0.00000  Uiso   1.00
H298   H     0.34926   0.45071   0.10130   0.00000  Uiso   1.00
H299   H     0.65074   0.54929   0.23204   0.00000  Uiso   1.00
H300   H     0.41001   0.35355   0.08253   0.00000  Uiso   1.00
H301   H     0.58998   0.64645   0.25080   0.00000  Uiso   1.00
H302   H     0.41041   0.43227   0.02377   0.00000  Uiso   1.00
H303   H     0.58955   0.56776   0.30956   0.00000  Uiso   1.00
H304   H     0.36856   0.47726   0.27031   0.00000  Uiso   1.00
N305   N     0.50001   0.50001   0.28403   0.00000  Uiso   1.00
N306   N     0.49999   0.49999   0.04931   0.00000  Uiso   1.00
O307   O     0.50000   0.43989   0.20625   0.00000  Uiso   1.00
O308   O     0.34386   0.53720   0.21463   0.00000  Uiso   1.00
O309   O     0.43064   0.37411   0.10295   0.00000  Uiso   1.00
O310   O     0.56936   0.62589   0.23039   0.00000  Uiso   1.00
O311   O     0.43652   0.44688   0.04580   0.00000  Uiso   1.00
O312   O     0.56348   0.55312   0.28754   0.00000  Uiso   1.00
O313   O     0.50000   0.56011   0.12709   0.00000  Uiso   1.00
O314   O     0.50000   0.43988   0.12706   0.00000  Uiso   1.00
O315   O     0.50000   0.56012   0.20628   0.00000  Uiso   1.00
O316   O     0.42495   0.50000   0.19712   0.00000  Uiso   1.00
O317   O     0.57505   0.50000   0.13621   0.00000  Uiso   1.00
O318   O     0.42494   0.49999   0.11793   0.00000  Uiso   1.00
O319   O     0.57506   0.50001   0.21540   0.00000  Uiso   1.00
O320   O     0.65614   0.46280   0.11870   0.00000  Uiso   1.00
C321   C     0.83259   0.42084   0.16662   0.00000  Uiso   1.00
C322   C     0.86645   0.35623   0.19929   0.00000  Uiso   1.00
C323   C     0.83440   0.62382   0.16678   0.00000  Uiso   1.00
C324   C     0.83226   0.37618   0.16656   0.00000  Uiso   1.00
C325   C     0.80149   0.47308   0.02268   0.00000  Uiso   1.00
C326   C     0.86518   0.52692   0.31065   0.00000  Uiso   1.00
C327   C     0.80183   0.47252   0.30616   0.00000  Uiso   1.00
C328   C     0.86484   0.52748   0.02717   0.00000  Uiso   1.00
C329   C     0.76943   0.44032   0.27944   0.00000  Uiso   1.00
C330   C     0.71750   0.44739   0.26460   0.00000  Uiso   1.00
C331   C     0.68532   0.41568   0.24334   0.00000  Uiso   1.00
C332   C     0.83408   0.57916   0.16671   0.00000  Uiso   1.00
C333   C     0.70424   0.37619   0.23846   0.00000  Uiso   1.00
C334   C     0.75499   0.36816   0.25582   0.00000  Uiso   1.00
C335   C     0.78724   0.39988   0.27698   0.00000  Uiso   1.00
C336   C     0.89724   0.55968   0.05389   0.00000  Uiso   1.00
C337   C     0.87943   0.60011   0.05636   0.00000  Uiso   1.00
C338   C     0.91169   0.63184   0.07753   0.00000  Uiso   1.00
C339   C     0.96244   0.62380   0.09487   0.00000  Uiso   1.00
C340   C     0.98136   0.58431   0.08998   0.00000  Uiso   1.00
C341   C     0.94917   0.55260   0.06873   0.00000  Uiso   1.00
C342   C     0.73495   0.49812   0.15527   0.00000  Uiso   1.00
C343   C     0.93172   0.50188   0.17806   0.00000  Uiso   1.00
C344   C     0.68000   0.49097   0.15111   0.00000  Uiso   1.00
C345   C     0.98667   0.50903   0.18222   0.00000  Uiso   1.00
C346   C     0.79867   0.35358   0.13375   0.00000  Uiso   1.00
C347   C     0.86800   0.64642   0.19958   0.00000  Uiso   1.00
C348   C     0.80022   0.64377   0.13404   0.00000  Uiso   1.00
Cu349  Cu    0.83333   0.50001   0.21355   0.00000  Uiso   1.00
Cu350  Cu    0.83333   0.49999   0.11978   0.00000  Uiso   1.00
H351   H     0.77431   0.62565   0.10931   0.00000  Uiso   1.00
H352   H     0.97888   0.42158   0.23125   0.00000  Uiso   1.00
H353   H     0.67931   0.35165   0.22208   0.00000  Uiso   1.00
H354   H     0.76929   0.33731   0.25306   0.00000  Uiso   1.00
H355   H     0.82623   0.39312   0.29105   0.00000  Uiso   1.00
H356   H     0.84045   0.60688   0.04230   0.00000  Uiso   1.00
H357   H     0.89740   0.66269   0.08029   0.00000  Uiso   1.00
H358   H     0.98738   0.64834   0.11126   0.00000  Uiso   1.00
H359   H     0.68779   0.57840   0.10208   0.00000  Uiso   1.00
H360   H     0.96478   0.52273   0.06301   0.00000  Uiso   1.00
H361   H     0.89236   0.37435   0.22403   0.00000  Uiso   1.00
H362   H     0.68260   0.45071   0.10130   0.00000  Uiso   1.00
H363   H     0.98407   0.54929   0.23204   0.00000  Uiso   1.00
H364   H     0.74335   0.35355   0.08253   0.00000  Uiso   1.00
H365   H     0.92332   0.64645   0.25080   0.00000  Uiso   1.00
H366   H     0.74375   0.43227   0.02377   0.00000  Uiso   1.00
H367   H     0.92289   0.56776   0.30956   0.00000  Uiso   1.00
H368   H     0.70189   0.47726   0.27031   0.00000  Uiso   1.00
N369   N     0.83335   0.50001   0.28403   0.00000  Uiso   1.00
N370   N     0.83332   0.49999   0.04931   0.00000  Uiso   1.00
O371   O     0.83333   0.43989   0.20625   0.00000  Uiso   1.00
O372   O     0.67719   0.53720   0.21463   0.00000  Uiso   1.00
O373   O     0.76397   0.37411   0.10295   0.00000  Uiso   1.00
O374   O     0.90269   0.62589   0.23039   0.00000  Uiso   1.00
O375   O     0.76986   0.44688   0.04580   0.00000  Uiso   1.00
O376   O     0.89681   0.55312   0.28754   0.00000  Uiso   1.00
O377   O     0.83334   0.56011   0.12709   0.00000  Uiso   1.00
O378   O     0.83333   0.43988   0.12706   0.00000  Uiso   1.00
O379   O     0.83334   0.56012   0.20628   0.00000  Uiso   1.00
O380   O     0.75828   0.50000   0.19712   0.00000  Uiso   1.00
O381   O     0.90839   0.50000   0.13621   0.00000  Uiso   1.00
O382   O     0.75828   0.49999   0.11793   0.00000  Uiso   1.00
O383   O     0.90839   0.50001   0.21540   0.00000  Uiso   1.00
O384   O     0.98947   0.46280   0.11870   0.00000  Uiso   1.00
C385   C     0.16592   0.75418   0.16662   0.00000  Uiso   1.00
C386   C     0.19978   0.68957   0.19929   0.00000  Uiso   1.00
C387   C     0.16774   0.95715   0.16678   0.00000  Uiso   1.00
C388   C     0.16560   0.70951   0.16656   0.00000  Uiso   1.00
C389   C     0.13482   0.80641   0.02268   0.00000  Uiso   1.00
C390   C     0.19851   0.86025   0.31065   0.00000  Uiso   1.00
C391   C     0.13516   0.80585   0.30616   0.00000  Uiso   1.00
C392   C     0.19817   0.86081   0.02717   0.00000  Uiso   1.00
C393   C     0.10276   0.77365   0.27944   0.00000  Uiso   1.00
C394   C     0.05084   0.78073   0.26460   0.00000  Uiso   1.00
C395   C     0.01866   0.74902   0.24334   0.00000  Uiso   1.00
C396   C     0.16741   0.91249   0.16671   0.00000  Uiso   1.00
C397   C     0.03758   0.70953   0.23846   0.00000  Uiso   1.00
C398   C     0.08832   0.70149   0.25582   0.00000  Uiso   1.00
C399   C     0.12058   0.73322   0.27698   0.00000  Uiso   1.00
C400   C     0.23058   0.89301   0.05389   0.00000  Uiso   1.00
C401   C     0.21277   0.93345   0.05636   0.00000  Uiso   1.00
C402   C     0.24502   0.96517   0.07753   0.00000  Uiso   1.00
C403   C     0.29577   0.95713   0.09487   0.00000  Uiso   1.00
C404   C     0.31469   0.91764   0.08998   0.00000  Uiso   1.00
C405   C     0.28250   0.88593   0.06873   0.00000  Uiso   1.00
C406   C     0.06828   0.83145   0.15527   0.00000  Uiso   1.00
C407   C     0.26505   0.83522   0.17806   0.00000  Uiso   1.00
C408   C     0.01333   0.82430   0.15111   0.00000  Uiso   1.00
C409   C     0.32000   0.84236   0.18222   0.00000  Uiso   1.00
C410   C     0.13200   0.68691   0.13375   0.00000  Uiso   1.00
C411   C     0.20133   0.97975   0.19958   0.00000  Uiso   1.00
C412   C     0.13355   0.97710   0.13404   0.00000  Uiso   1.00
Cu413  Cu    0.16667   0.83334   0.21355   0.00000  Uiso   1.00
Cu414  Cu    0.16667   0.83333   0.11978   0.00000  Uiso   1.00
H415   H     0.10764   0.95899   0.10931   0.00000  Uiso   1.00
H416   H     0.31222   0.75492   0.23125   0.00000  Uiso   1.00
H417   H     0.01264   0.68498   0.22208   0.00000  Uiso   1.00
H418   H     0.10262   0.67064   0.25306   0.00000  Uiso   1.00
H419   H     0.15956   0.72645   0.29105   0.00000  Uiso   1.00
H420   H     0.17378   0.94022   0.04230   0.00000  Uiso   1.00
H421   H     0.23073   0.99602   0.08029   0.00000  Uiso   1.00
H422   H     0.32071   0.98167   0.11126   0.00000  Uiso   1.00
H423   H     0.02113   0.91174   0.10208   0.00000  Uiso   1.00
H424   H     0.29811   0.85607   0.06301   0.00000  Uiso   1.00
H425   H     0.22569   0.70768   0.22403   0.00000  Uiso   1.00
H426   H     0.01593   0.78404   0.10130   0.00000  Uiso   1.00
H427   H     0.31740   0.88263   0.23204   0.00000  Uiso   1.00
H428   H     0.07668   0.68688   0.08253   0.00000  Uiso   1.00
H429   H     0.25665   0.97978   0.25080   0.00000  Uiso   1.00
H430   H     0.07708   0.76561   0.02377   0.00000  Uiso   1.00
H431   H     0.25622   0.90109   0.30956   0.00000  Uiso   1.00
H432   H     0.03522   0.81059   0.27031   0.00000  Uiso   1.00
N433   N     0.16668   0.83334   0.28403   0.00000  Uiso   1.00
N434   N     0.16665   0.83332   0.04931   0.00000  Uiso   1.00
O435   O     0.16666   0.77322   0.20625   0.00000  Uiso   1.00
O436   O     0.01053   0.87053   0.21463   0.00000  Uiso   1.00
O437   O     0.09731   0.70745   0.10295   0.00000  Uiso   1.00
O438   O     0.23602   0.95922   0.23039   0.00000  Uiso   1.00
O439   O     0.10319   0.78021   0.04580   0.00000  Uiso   1.00
O440   O     0.23014   0.88645   0.28754   0.00000  Uiso   1.00
O441   O     0.16667   0.89345   0.12709   0.00000  Uiso   1.00
O442   O     0.16666   0.77321   0.12706   0.00000  Uiso   1.00
O443   O     0.16667   0.89346   0.20628   0.00000  Uiso   1.00
O444   O     0.09161   0.83334   0.19712   0.00000  Uiso   1.00
O445   O     0.24172   0.83333   0.13621   0.00000  Uiso   1.00
O446   O     0.09161   0.83333   0.11793   0.00000  Uiso   1.00
O447   O     0.24172   0.83334   0.21540   0.00000  Uiso   1.00
O448   O     0.32281   0.79614   0.11870   0.00000  Uiso   1.00
C449   C     0.49925   0.75418   0.16662   0.00000  Uiso   1.00
C450   C     0.53311   0.68957   0.19929   0.00000  Uiso   1.00
C451   C     0.50107   0.95715   0.16678   0.00000  Uiso   1.00
C452   C     0.49893   0.70951   0.16656   0.00000  Uiso   1.00
C453   C     0.46815   0.80641   0.02268   0.00000  Uiso   1.00
C454   C     0.53185   0.86025   0.31065   0.00000  Uiso   1.00
C455   C     0.46850   0.80585   0.30616   0.00000  Uiso   1.00
C456   C     0.53150   0.86081   0.02717   0.00000  Uiso   1.00
C457   C     0.43609   0.77365   0.27944   0.00000  Uiso   1.00
C458   C     0.38417   0.78073   0.26460   0.00000  Uiso   1.00
C459   C     0.35199   0.74902   0.24334   0.00000  Uiso   1.00
C460   C     0.50075   0.91249   0.16671   0.00000  Uiso   1.00
C461   C     0.37091   0.70953   0.23846   0.00000  Uiso   1.00
C462   C     0.42166   0.70149   0.25582   0.00000  Uiso   1.00
C463   C     0.45391   0.73322   0.27698   0.00000  Uiso   1.00
C464   C     0.56391   0.89301   0.05389   0.00000  Uiso   1.00
C465   C     0.54610   0.93345   0.05636   0.00000  Uiso   1.00
C466   C     0.57836   0.96517   0.07753   0.00000  Uiso   1.00
C467   C     0.62911   0.95713   0.09487   0.00000  Uiso   1.00
C468   C     0.64802   0.91764   0.08998   0.00000  Uiso   1.00
C469   C     0.61584   0.88593   0.06873   0.00000  Uiso   1.00
C470   C     0.40162   0.83145   0.15527   0.00000  Uiso   1.00
C471   C     0.59838   0.83522   0.17806   0.00000  Uiso   1.00
C472   C     0.34667   0.82430   0.15111   0.00000  Uiso   1.00
C473   C     0.65333   0.84236   0.18222   0.00000  Uiso   1.00
C474   C     0.46534   0.68691   0.13375   0.00000  Uiso   1.00
C475   C     0.53466   0.97975   0.19958   0.00000  Uiso   1.00
C476   C     0.46689   0.97710   0.13404   0.00000  Uiso   1.00
Cu477  Cu    0.50000   0.83334   0.21355   0.00000  Uiso   1.00
Cu478  Cu    0.50000   0.83333   0.11978   0.00000  Uiso   1.00
H479   H     0.44097   0.95899   0.10931   0.00000  Uiso   1.00
H480   H     0.64555   0.75492   0.23125   0.00000  Uiso   1.00
H481   H     0.34597   0.68498   0.22208   0.00000  Uiso   1.00
H482   H     0.43595   0.67064   0.25306   0.00000  Uiso   1.00
H483   H     0.49289   0.72645   0.29105   0.00000  Uiso   1.00
H484   H     0.50711   0.94022   0.04230   0.00000  Uiso   1.00
H485   H     0.56406   0.99602   0.08029   0.00000  Uiso   1.00
H486   H     0.65405   0.98167   0.11126   0.00000  Uiso   1.00
H487   H     0.35446   0.91174   0.10208   0.00000  Uiso   1.00
H488   H     0.63145   0.85607   0.06301   0.00000  Uiso   1.00
H489   H     0.55903   0.70768   0.22403   0.00000  Uiso   1.00
H490   H     0.34926   0.78404   0.10130   0.00000  Uiso   1.00
H491   H     0.65074   0.88263   0.23204   0.00000  Uiso   1.00
H492   H     0.41001   0.68688   0.08253   0.00000  Uiso   1.00
H493   H     0.58998   0.97978   0.25080   0.00000  Uiso   1.00
H494   H     0.41041   0.76561   0.02377   0.00000  Uiso   1.00
H495   H     0.58955   0.90109   0.30956   0.00000  Uiso   1.00
H496   H     0.36856   0.81059   0.27031   0.00000  Uiso   1.00
N497   N     0.50001   0.83334   0.28403   0.00000  Uiso   1.00
N498   N     0.49999   0.83332   0.04931   0.00000  Uiso   1.00
O499   O     0.50000   0.77322   0.20625   0.00000  Uiso   1.00
O500   O     0.34386   0.87053   0.21463   0.00000  Uiso   1.00
O501   O     0.43064   0.70745   0.10295   0.00000  Uiso   1.00
O502   O     0.56936   0.95922   0.23039   0.00000  Uiso   1.00
O503   O     0.43652   0.78021   0.04580   0.00000  Uiso   1.00
O504   O     0.56348   0.88645   0.28754   0.00000  Uiso   1.00
O505   O     0.50000   0.89345   0.12709   0.00000  Uiso   1.00
O506   O     0.50000   0.77321   0.12706   0.00000  Uiso   1.00
O507   O     0.50000   0.89346   0.20628   0.00000  Uiso   1.00
O508   O     0.42495   0.83334   0.19712   0.00000  Uiso   1.00
O509   O     0.57505   0.83333   0.13621   0.00000  Uiso   1.00
O510   O     0.42494   0.83333   0.11793   0.00000  Uiso   1.00
O511   O     0.57506   0.83334   0.21540   0.00000  Uiso   1.00
O512   O     0.65614   0.79614   0.11870   0.00000  Uiso   1.00
C513   C     0.83259   0.75418   0.16662   0.00000  Uiso   1.00
C514   C     0.86645   0.68957   0.19929   0.00000  Uiso   1.00
C515   C     0.83440   0.95715   0.16678   0.00000  Uiso   1.00
C516   C     0.83226   0.70951   0.16656   0.00000  Uiso   1.00
C517   C     0.80149   0.80641   0.02268   0.00000  Uiso   1.00
C518   C     0.86518   0.86025   0.31065   0.00000  Uiso   1.00
C519   C     0.80183   0.80585   0.30616   0.00000  Uiso   1.00
C520   C     0.86484   0.86081   0.02717   0.00000  Uiso   1.00
C521   C     0.76943   0.77365   0.27944   0.00000  Uiso   1.00
C522   C     0.71750   0.78073   0.26460   0.00000  Uiso   1.00
C523   C     0.68532   0.74902   0.24334   0.00000  Uiso   1.00
C524   C     0.83408   0.91249   0.16671   0.00000  Uiso   1.00
C525   C     0.70424   0.70953   0.23846   0.00000  Uiso   1.00
C526   C     0.75499   0.70149   0.25582   0.00000  Uiso   1.00
C527   C     0.78724   0.73322   0.27698   0.00000  Uiso   1.00
C528   C     0.89724   0.89301   0.05389   0.00000  Uiso   1.00
C529   C     0.87943   0.93345   0.05636   0.00000  Uiso   1.00
C530   C     0.91169   0.96517   0.07753   0.00000  Uiso   1.00
C531   C     0.96244   0.95713   0.09487   0.00000  Uiso   1.00
C532   C     0.98136   0.91764   0.08998   0.00000  Uiso   1.00
C533   C     0.94917   0.88593   0.06873   0.00000  Uiso   1.00
C534   C     0.73495   0.83145   0.15527   0.00000  Uiso   1.00
C535   C     0.93172   0.83522   0.17806   0.00000  Uiso   1.00
C536   C     0.68000   0.82430   0.15111   0.00000  Uiso   1.00
C537   C     0.98667   0.84236   0.18222   0.00000  Uiso   1.00
C538   C     0.79867   0.68691   0.13375   0.00000  Uiso   1.00
C539   C     0.86800   0.97975   0.19958   0.00000  Uiso   1.00
C540   C     0.80022   0.97710   0.13404   0.00000  Uiso   1.00
Cu541  Cu    0.83333   0.83334   0.21355   0.00000  Uiso   1.00
Cu542  Cu    0.83333   0.83333   0.11978   0.00000  Uiso   1.00
H543   H     0.77431   0.95899   0.10931   0.00000  Uiso   1.00
H544   H     0.97888   0.75492   0.23125   0.00000  Uiso   1.00
H545   H     0.67931   0.68498   0.22208   0.00000  Uiso   1.00
H546   H     0.76929   0.67064   0.25306   0.00000  Uiso   1.00
H547   H     0.82623   0.72645   0.29105   0.00000  Uiso   1.00
H548   H     0.84045   0.94022   0.04230   0.00000  Uiso   1.00
H549   H     0.89740   0.99602   0.08029   0.00000  Uiso   1.00
H550   H     0.98738   0.98167   0.11126   0.00000  Uiso   1.00
H551   H     0.68779   0.91174   0.10208   0.00000  Uiso   1.00
H552   H     0.96478   0.85607   0.06301   0.00000  Uiso   1.00
H553   H     0.89236   0.70768   0.22403   0.00000  Uiso   1.00
H554   H     0.68260   0.78404   0.10130   0.00000  Uiso   1.00
H555   H     0.98407   0.88263   0.23204   0.00000  Uiso   1.00
H556   H     0.74335   0.68688   0.08253   0.00000  Uiso   1.00
H557   H     0.92332   0.97978   0.25080   0.00000  Uiso   1.00
H558   H     0.74375   0.76561   0.02377   0.00000  Uiso   1.00
H559   H     0.92289   0.90109   0.30956   0.00000  Uiso   1.00
H560   H     0.70189   0.81059   0.27031   0.00000  Uiso   1.00
N561   N     0.83335   0.83334   0.28403   0.00000  Uiso   1.00
N562   N     0.83332   0.83332   0.04931   0.00000  Uiso   1.00
O563   O     0.83333   0.77322   0.20625   0.00000  Uiso   1.00
O564   O     0.67719   0.87053   0.21463   0.00000  Uiso   1.00
O565   O     0.76397   0.70745   0.10295   0.00000  Uiso   1.00
O566   O     0.90269   0.95922   0.23039   0.00000  Uiso   1.00
O567   O     0.76986   0.78021   0.04580   0.00000  Uiso   1.00
O568   O     0.89681   0.88645   0.28754   0.00000  Uiso   1.00
O569   O     0.83334   0.89345   0.12709   0.00000  Uiso   1.00
O570   O     0.83333   0.77321   0.12706   0.00000  Uiso   1.00
O571   O     0.83334   0.89346   0.20628   0.00000  Uiso   1.00
O572   O     0.75828   0.83334   0.19712   0.00000  Uiso   1.00
O573   O     0.90839   0.83333   0.13621   0.00000  Uiso   1.00
O574   O     0.75828   0.83333   0.11793   0.00000  Uiso   1.00
O575   O     0.90839   0.83334   0.21540   0.00000  Uiso   1.00
O576   O     0.98947   0.79614   0.11870   0.00000  Uiso   1.00
C577   C     0.16592   0.08751   0.49996   0.00000  Uiso   1.00
C578   C     0.19978   0.02290   0.53262   0.00000  Uiso   1.00
C579   C     0.16774   0.29049   0.50011   0.00000  Uiso   1.00
C580   C     0.16560   0.04285   0.49989   0.00000  Uiso   1.00
C581   C     0.13482   0.13975   0.35602   0.00000  Uiso   1.00
C582   C     0.19851   0.19359   0.64398   0.00000  Uiso   1.00
C583   C     0.13516   0.13919   0.63950   0.00000  Uiso   1.00
C584   C     0.19817   0.19415   0.36051   0.00000  Uiso   1.00
C585   C     0.10276   0.10698   0.61278   0.00000  Uiso   1.00
C586   C     0.05084   0.11406   0.59793   0.00000  Uiso   1.00
C587   C     0.01866   0.08235   0.57668   0.00000  Uiso   1.00
C588   C     0.16741   0.24582   0.50004   0.00000  Uiso   1.00
C589   C     0.03758   0.04286   0.57180   0.00000  Uiso   1.00
C590   C     0.08832   0.03482   0.58915   0.00000  Uiso   1.00
C591   C     0.12058   0.06655   0.61031   0.00000  Uiso   1.00
C592   C     0.23058   0.22635   0.38722   0.00000  Uiso   1.00
C593   C     0.21277   0.26678   0.38970   0.00000  Uiso   1.00
C594   C     0.24502   0.29850   0.41086   0.00000  Uiso   1.00
C595   C     0.29577   0.29046   0.42821   0.00000  Uiso   1.00
C596   C     0.31469   0.25097   0.42332   0.00000  Uiso   1.00
C597   C     0.28250   0.21927   0.40206   0.00000  Uiso   1.00
C598   C     0.06828   0.16478   0.48860   0.00000  Uiso   1.00
C599   C     0.26505   0.16855   0.51140   0.00000  Uiso   1.00
C600   C     0.01333   0.15764   0.48445   0.00000  Uiso   1.00
C601   C     0.32000   0.17569   0.51555   0.00000  Uiso   1.00
C602   C     0.13200   0.02025   0.46708   0.00000  Uiso   1.00
C603   C     0.20133   0.31309   0.53292   0.00000  Uiso   1.00
C604   C     0.13355   0.31043   0.46738   0.00000  Uiso   1.00
Cu605  Cu    0.16667   0.16667   0.54689   0.00000  Uiso   1.00
Cu606  Cu    0.16667   0.16666   0.45311   0.00000  Uiso   1.00
H607   H     0.10764   0.29232   0.44264   0.00000  Uiso   1.00
H608   H     0.31222   0.08825   0.56458   0.00000  Uiso   1.00
H609   H     0.01264   0.01831   0.55541   0.00000  Uiso   1.00
H610   H     0.10262   0.00398   0.58639   0.00000  Uiso   1.00
H611   H     0.15956   0.05978   0.62438   0.00000  Uiso   1.00
H612   H     0.17378   0.27355   0.37563   0.00000  Uiso   1.00
H613   H     0.23073   0.32935   0.41362   0.00000  Uiso   1.00
H614   H     0.32071   0.31501   0.44459   0.00000  Uiso   1.00
H615   H     0.02113   0.24507   0.43541   0.00000  Uiso   1.00
H616   H     0.29811   0.18940   0.39635   0.00000  Uiso   1.00
H617   H     0.22569   0.04101   0.55736   0.00000  Uiso   1.00
H618   H     0.01593   0.11737   0.43463   0.00000  Uiso   1.00
H619   H     0.31740   0.21596   0.56537   0.00000  Uiso   1.00
H620   H     0.07668   0.02022   0.41586   0.00000  Uiso   1.00
H621   H     0.25665   0.31312   0.58414   0.00000  Uiso   1.00
H622   H     0.07708   0.09894   0.35710   0.00000  Uiso   1.00
H623   H     0.25622   0.23442   0.64289   0.00000  Uiso   1.00
H624   H     0.03522   0.14393   0.60364   0.00000  Uiso   1.00
N625   N     0.16668   0.16668   0.61736   0.00000  Uiso   1.00
N626   N     0.16665   0.16666   0.38264   0.00000  Uiso   1.00
O627   O     0.16666   0.10655   0.53958   0.00000  Uiso   1.00
O628   O     0.01053   0.20386   0.54797   0.00000  Uiso   1.00
O629   O     0.09731   0.04078   0.43628   0.00000  Uiso   1.00
O630   O     0.23602   0.29255   0.56372   0.00000  Uiso   1.00
O631   O     0.10319   0.11355   0.37913   0.00000  Uiso   1.00
O632   O     0.23014   0.21979   0.62087   0.00000  Uiso   1.00
O633   O     0.16667   0.22678   0.46042   0.00000  Uiso   1.00
O634   O     0.16666   0.10654   0.46039   0.00000  Uiso   1.00
O635   O     0.16667   0.22679   0.53961   0.00000  Uiso   1.00
O636   O     0.09161   0.16667   0.53046   0.00000  Uiso   1.00
O637   O     0.24172   0.16666   0.46954   0.00000  Uiso   1.00
O638   O     0.09161   0.16666   0.45127   0.00000  Uiso   1.00
O639   O     0.24172   0.16667   0.54873   0.00000  Uiso   1.00
O640   O     0.32281   0.12947   0.45204   0.00000  Uiso   1.00
C641   C     0.49925   0.08751   0.49996   0.00000  Uiso   1.00
C642   C     0.53311   0.02290   0.53262   0.00000  Uiso   1.00
C643   C     0.50107   0.29049   0.50011   0.00000  Uiso   1.00
C644   C     0.49893   0.04285   0.49989   0.00000  Uiso   1.00
C645   C     0.46815   0.13975   0.35602   0.00000  Uiso   1.00
C646   C     0.53185   0.19359   0.64398   0.00000  Uiso   1.00
C647   C     0.46850   0.13919   0.63950   0.00000  Uiso   1.00
C648   C     0.53150   0.19415   0.36051   0.00000  Uiso   1.00
C649   C     0.43609   0.10698   0.61278   0.00000  Uiso   1.00
C650   C     0.38417   0.11406   0.59793   0.00000  Uiso   1.00
C651   C     0.35199   0.08235   0.57668   0.00000  Uiso   1.00
C652   C     0.50075   0.24582   0.50004   0.00000  Uiso   1.00
C653   C     0.37091   0.04286   0.57180   0.00000  Uiso   1.00
C654   C     0.42166   0.03482   0.58915   0.00000  Uiso   1.00
C655   C     0.45391   0.06655   0.61031   0.00000  Uiso   1.00
C656   C     0.56391   0.22635   0.38722   0.00000  Uiso   1.00
C657   C     0.54610   0.26678   0.38970   0.00000  Uiso   1.00
C658   C     0.57836   0.29850   0.41086   0.00000  Uiso   1.00
C659   C     0.62911   0.29046   0.42821   0.00000  Uiso   1.00
C660   C     0.64802   0.25097   0.42332   0.00000  Uiso   1.00
C661   C     0.61584   0.21927   0.40206   0.00000  Uiso   1.00
C662   C     0.40162   0.16478   0.48860   0.00000  Uiso   1.00
C663   C     0.59838   0.16855   0.51140   0.00000  Uiso   1.00
C664   C     0.34667   0.15764   0.48445   0.00000  Uiso   1.00
C665   C     0.65333   0.17569   0.51555   0.00000  Uiso   1.00
C666   C     0.46534   0.02025   0.46708   0.00000  Uiso   1.00
C667   C     0.53466   0.31309   0.53292   0.00000  Uiso   1.00
C668   C     0.46689   0.31043   0.46738   0.00000  Uiso   1.00
Cu669  Cu    0.50000   0.16667   0.54689   0.00000  Uiso   1.00
Cu670  Cu    0.50000   0.16666   0.45311   0.00000  Uiso   1.00
H671   H     0.44097   0.29232   0.44264   0.00000  Uiso   1.00
H672   H     0.64555   0.08825   0.56458   0.00000  Uiso   1.00
H673   H     0.34597   0.01831   0.55541   0.00000  Uiso   1.00
H674   H     0.43595   0.00398   0.58639   0.00000  Uiso   1.00
H675   H     0.49289   0.05978   0.62438   0.00000  Uiso   1.00
H676   H     0.50711   0.27355   0.37563   0.00000  Uiso   1.00
H677   H     0.56406   0.32935   0.41362   0.00000  Uiso   1.00
H678   H     0.65405   0.31501   0.44459   0.00000  Uiso   1.00
H679   H     0.35446   0.24507   0.43541   0.00000  Uiso   1.00
H680   H     0.63145   0.18940   0.39635   0.00000  Uiso   1.00
H681   H     0.55903   0.04101   0.55736   0.00000  Uiso   1.00
H682   H     0.34926   0.11737   0.43463   0.00000  Uiso   1.00
H683   H     0.65074   0.21596   0.56537   0.00000  Uiso   1.00
H684   H     0.41001   0.02022   0.41586   0.00000  Uiso   1.00
H685   H     0.58998   0.31312   0.58414   0.00000  Uiso   1.00
H686   H     0.41041   0.09894   0.35710   0.00000  Uiso   1.00
H687   H     0.58955   0.23442   0.64289   0.00000  Uiso   1.00
H688   H     0.36856   0.14393   0.60364   0.00000  Uiso   1.00
N689   N     0.50001   0.16668   0.61736   0.00000  Uiso   1.00
N690   N     0.49999   0.16666   0.38264   0.00000  Uiso   1.00
O691   O     0.50000   0.10655   0.53958   0.00000  Uiso   1.00
O692   O     0.34386   0.20386   0.54797   0.00000  Uiso   1.00
O693   O     0.43064   0.04078   0.43628   0.00000  Uiso   1.00
O694   O     0.56936   0.29255   0.56372   0.00000  Uiso   1.00
O695   O     0.43652   0.11355   0.37913   0.00000  Uiso   1.00
O696   O     0.56348   0.21979   0.62087   0.00000  Uiso   1.00
O697   O     0.50000   0.22678   0.46042   0.00000  Uiso   1.00
O698   O     0.50000   0.10654   0.46039   0.00000  Uiso   1.00
O699   O     0.50000   0.22679   0.53961   0.00000  Uiso   1.00
O700   O     0.42495   0.16667   0.53046   0.00000  Uiso   1.00
O701   O     0.57505   0.16666   0.46954   0.00000  Uiso   1.00
O702   O     0.42494   0.16666   0.45127   0.00000  Uiso   1.00
O703   O     0.57506   0.16667   0.54873   0.00000  Uiso   1.00
O704   O     0.65614   0.12947   0.45204   0.00000  Uiso   1.00
C705   C     0.83259   0.08751   0.49996   0.00000  Uiso   1.00
C706   C     0.86645   0.02290   0.53262   0.00000  Uiso   1.00
C707   C     0.83440   0.29049   0.50011   0.00000  Uiso   1.00
C708   C     0.83226   0.04285   0.49989   0.00000  Uiso   1.00
C709   C     0.80149   0.13975   0.35602   0.00000  Uiso   1.00
C710   C     0.86518   0.19359   0.64398   0.00000  Uiso   1.00
C711   C     0.80183   0.13919   0.63950   0.00000  Uiso   1.00
C712   C     0.86484   0.19415   0.36051   0.00000  Uiso   1.00
C713   C     0.76943   0.10698   0.61278   0.00000  Uiso   1.00
C714   C     0.71750   0.11406   0.59793   0.00000  Uiso   1.00
C715   C     0.68532   0.08235   0.57668   0.00000  Uiso   1.00
C716   C     0.83408   0.24582   0.50004   0.00000  Uiso   1.00
C717   C     0.70424   0.04286   0.57180   0.00000  Uiso   1.00
C718   C     0.75499   0.03482   0.58915   0.00000  Uiso   1.00
C719   C     0.78724   0.06655   0.61031   0.00000  Uiso   1.00
C720   C     0.89724   0.22635   0.38722   0.00000  Uiso   1.00
C721   C     0.87943   0.26678   0.38970   0.00000  Uiso   1.00
C722   C     0.91169   0.29850   0.41086   0.00000  Uiso   1.00
C723   C     0.96244   0.29046   0.42821   0.00000  Uiso   1.00
C724   C     0.98136   0.25097   0.42332   0.00000  Uiso   1.00
C725   C     0.94917   0.21927   0.40206   0.00000  Uiso   1.00
C726   C     0.73495   0.16478   0.48860   0.00000  Uiso   1.00
C727   C     0.93172   0.16855   0.51140   0.00000  Uiso   1.00
C728   C     0.68000   0.15764   0.48445   0.00000  Uiso   1.00
C729   C     0.98667   0.17569   0.51555   0.00000  Uiso   1.00
C730   C     0.79867   0.02025   0.46708   0.00000  Uiso   1.00
C731   C     0.86800   0.31309   0.53292   0.00000  Uiso   1.00
C732   C     0.80022   0.31043   0.46738   0.00000  Uiso   1.00
Cu733  Cu    0.83333   0.16667   0.54689   0.00000  Uiso   1.00
Cu734  Cu    0.83333   0.16666   0.45311   0.00000  Uiso   1.00
H735   H     0.77431   0.29232   0.44264   0.00000  Uiso   1.00
H736   H     0.97888   0.08825   0.56458   0.00000  Uiso   1.00
H737   H     0.67931   0.01831   0.55541   0.00000  Uiso   1.00
H738   H     0.76929   0.00398   0.58639   0.00000  Uiso   1.00
H739   H     0.82623   0.05978   0.62438   0.00000  Uiso   1.00
H740   H     0.84045   0.27355   0.37563   0.00000  Uiso   1.00
H741   H     0.89740   0.32935   0.41362   0.00000  Uiso   1.00
H742   H     0.98738   0.31501   0.44459   0.00000  Uiso   1.00
H743   H     0.68779   0.24507   0.43541   0.00000  Uiso   1.00
H744   H     0.96478   0.18940   0.39635   0.00000  Uiso   1.00
H745   H     0.89236   0.04101   0.55736   0.00000  Uiso   1.00
H746   H     0.68260   0.11737   0.43463   0.00000  Uiso   1.00
H747   H     0.98407   0.21596   0.56537   0.00000  Uiso   1.00
H748   H     0.74335   0.02022   0.41586   0.00000  Uiso   1.00
H749   H     0.92332   0.31312   0.58414   0.00000  Uiso   1.00
H750   H     0.74375   0.09894   0.35710   0.00000  Uiso   1.00
H751   H     0.92289   0.23442   0.64289   0.00000  Uiso   1.00
H752   H     0.70189   0.14393   0.60364   0.00000  Uiso   1.00
N753   N     0.83335   0.16668   0.61736   0.00000  Uiso   1.00
N754   N     0.83332   0.16666   0.38264   0.00000  Uiso   1.00
O755   O     0.83333   0.10655   0.53958   0.00000  Uiso   1.00
O756   O     0.67719   0.20386   0.54797   0.00000  Uiso   1.00
O757   O     0.76397   0.04078   0.43628   0.00000  Uiso   1.00
O758   O     0.90269   0.29255   0.56372   0.00000  Uiso   1.00
O759   O     0.76986   0.11355   0.37913   0.00000  Uiso   1.00
O760   O     0.89681   0.21979   0.62087   0.00000  Uiso   1.00
O761   O     0.83334   0.22678   0.46042   0.00000  Uiso   1.00
O762   O     0.83333   0.10654   0.46039   0.00000  Uiso   1.00
O763   O     0.83334   0.22679   0.53961   0.00000  Uiso   1.00
O764   O     0.75828   0.16667   0.53046   0.00000  Uiso   1.00
O765   O     0.90839   0.16666   0.46954   0.00000  Uiso   1.00
O766   O     0.75828   0.16666   0.45127   0.00000  Uiso   1.00
O767   O     0.90839   0.16667   0.54873   0.00000  Uiso   1.00
O768   O     0.98947   0.12947   0.45204   0.00000  Uiso   1.00
C769   C     0.16592   0.42084   0.49996   0.00000  Uiso   1.00
C770   C     0.19978   0.35623   0.53262   0.00000  Uiso   1.00
C771   C     0.16774   0.62382   0.50011   0.00000  Uiso   1.00
C772   C     0.16560   0.37618   0.49989   0.00000  Uiso   1.00
C773   C     0.13482   0.47308   0.35602   0.00000  Uiso   1.00
C774   C     0.19851   0.52692   0.64398   0.00000  Uiso   1.00
C775   C     0.13516   0.47252   0.63950   0.00000  Uiso   1.00
C776   C     0.19817   0.52748   0.36051   0.00000  Uiso   1.00
C777   C     0.10276   0.44032   0.61278   0.00000  Uiso   1.00
C778   C     0.05084   0.44739   0.59793   0.00000  Uiso   1.00
C779   C     0.01866   0.41568   0.57668   0.00000  Uiso   1.00
C780   C     0.16741   0.57916   0.50004   0.00000  Uiso   1.00
C781   C     0.03758   0.37619   0.57180   0.00000  Uiso   1.00
C782   C     0.08832   0.36816   0.58915   0.00000  Uiso   1.00
C783   C     0.12058   0.39988   0.61031   0.00000  Uiso   1.00
C784   C     0.23058   0.55968   0.38722   0.00000  Uiso   1.00
C785   C     0.21277   0.60011   0.38970   0.00000  Uiso   1.00
C786   C     0.24502   0.63184   0.41086   0.00000  Uiso   1.00
C787   C     0.29577   0.62380   0.42821   0.00000  Uiso   1.00
C788   C     0.31469   0.58431   0.42332   0.00000  Uiso   1.00
C789   C     0.28250   0.55260   0.40206   0.00000  Uiso   1.00
C790   C     0.06828   0.49812   0.48860   0.00000  Uiso   1.00
C791   C     0.26505   0.50188   0.51140   0.00000  Uiso   1.00
C792   C     0.01333   0.49097   0.48445   0.00000  Uiso   1.00
C793   C     0.32000   0.50903   0.51555   0.00000  Uiso   1.00
C794   C     0.13200   0.35358   0.46708   0.00000  Uiso   1.00
C795   C     0.20133   0.64642   0.53292   0.00000  Uiso   1.00
C796   C     0.13355   0.64377   0.46738   0.00000  Uiso   1.00
Cu797  Cu    0.16667   0.50001   0.54689   0.00000  Uiso   1.00
Cu798  Cu    0.16667   0.49999   0.45311   0.00000  Uiso   1.00
H799   H     0.10764   0.62565   0.44264   0.00000  Uiso   1.00
H800   H     0.31222   0.42158   0.56458   0.00000  Uiso   1.00
H801   H     0.01264   0.35165   0.55541   0.00000  Uiso   1.00
H802   H     0.10262   0.33731   0.58639   0.00000  Uiso   1.00
H803   H     0.15956   0.39312   0.62438   0.00000  Uiso   1.00
H804   H     0.17378   0.60688   0.37563   0.00000  Uiso   1.00
H805   H     0.23073   0.66269   0.41362   0.00000  Uiso   1.00
H806   H     0.32071   0.64834   0.44459   0.00000  Uiso   1.00
H807   H     0.02113   0.57840   0.43541   0.00000  Uiso   1.00
H808   H     0.29811   0.52273   0.39635   0.00000  Uiso   1.00
H809   H     0.22569   0.37435   0.55736   0.00000  Uiso   1.00
H810   H     0.01593   0.45071   0.43463   0.00000  Uiso   1.00
H811   H     0.31740   0.54929   0.56537   0.00000  Uiso   1.00
H812   H     0.07668   0.35355   0.41586   0.00000  Uiso   1.00
H813   H     0.25665   0.64645   0.58414   0.00000  Uiso   1.00
H814   H     0.07708   0.43227   0.35710   0.00000  Uiso   1.00
H815   H     0.25622   0.56776   0.64289   0.00000  Uiso   1.00
H816   H     0.03522   0.47726   0.60364   0.00000  Uiso   1.00
N817   N     0.16668   0.50001   0.61736   0.00000  Uiso   1.00
N818   N     0.16665   0.49999   0.38264   0.00000  Uiso   1.00
O819   O     0.16666   0.43989   0.53958   0.00000  Uiso   1.00
O820   O     0.01053   0.53720   0.54797   0.00000  Uiso   1.00
O821   O     0.09731   0.37411   0.43628   0.00000  Uiso   1.00
O822   O     0.23602   0.62589   0.56372   0.00000  Uiso   1.00
O823   O     0.10319   0.44688   0.37913   0.00000  Uiso   1.00
O824   O     0.23014   0.55312   0.62087   0.00000  Uiso   1.00
O825   O     0.16667   0.56011   0.46042   0.00000  Uiso   1.00
O826   O     0.16666   0.43988   0.46039   0.00000  Uiso   1.00
O827   O     0.16667   0.56012   0.53961   0.00000  Uiso   1.00
O828   O     0.09161   0.50000   0.53046   0.00000  Uiso   1.00
O829   O     0.24172   0.50000   0.46954   0.00000  Uiso   1.00
O830   O     0.09161   0.49999   0.45127   0.00000  Uiso   1.00
O831   O     0.24172   0.50001   0.54873   0.00000  Uiso   1.00
O832   O     0.32281   0.46280   0.45204   0.00000  Uiso   1.00
C833   C     0.49925   0.42084   0.49996   0.00000  Uiso   1.00
C834   C     0.53311   0.35623   0.53262   0.00000  Uiso   1.00
C835   C     0.50107   0.62382   0.50011   0.00000  Uiso   1.00
C836   C     0.49893   0.37618   0.49989   0.00000  Uiso   1.00
C837   C     0.46815   0.47308   0.35602   0.00000  Uiso   1.00
C838   C     0.53185   0.52692   0.64398   0.00000  Uiso   1.00
C839   C     0.46850   0.47252   0.63950   0.00000  Uiso   1.00
C840   C     0.53150   0.52748   0.36051   0.00000  Uiso   1.00
C841   C     0.43609   0.44032   0.61278   0.00000  Uiso   1.00
C842   C     0.38417   0.44739   0.59793   0.00000  Uiso   1.00
C843   C     0.35199   0.41568   0.57668   0.00000  Uiso   1.00
C844   C     0.50075   0.57916   0.50004   0.00000  Uiso   1.00
C845   C     0.37091   0.37619   0.57180   0.00000  Uiso   1.00
C846   C     0.42166   0.36816   0.58915   0.00000  Uiso   1.00
C847   C     0.45391   0.39988   0.61031   0.00000  Uiso   1.00
C848   C     0.56391   0.55968   0.38722   0.00000  Uiso   1.00
C849   C     0.54610   0.60011   0.38970   0.00000  Uiso   1.00
C850   C     0.57836   0.63184   0.41086   0.00000  Uiso   1.00
C851   C     0.62911   0.62380   0.42821   0.00000  Uiso   1.00
C852   C     0.64802   0.58431   0.42332   0.00000  Uiso   1.00
C853   C     0.61584   0.55260   0.40206   0.00000  Uiso   1.00
C854   C     0.40162   0.49812   0.48860   0.00000  Uiso   1.00
C855   C     0.59838   0.50188   0.51140   0.00000  Uiso   1.00
C856   C     0.34667   0.49097   0.48445   0.00000  Uiso   1.00
C857   C     0.65333   0.50903   0.51555   0.00000  Uiso   1.00
C858   C     0.46534   0.35358   0.46708   0.00000  Uiso   1.00
C859   C     0.53466   0.64642   0.53292   0.00000  Uiso   1.00
C860   C     0.46689   0.64377   0.46738   0.00000  Uiso   1.00
Cu861  Cu    0.50000   0.50001   0.54689   0.00000  Uiso   1.00
Cu862  Cu    0.50000   0.49999   0.45311   0.00000  Uiso   1.00
H863   H     0.44097   0.62565   0.44264   0.00000  Uiso   1.00
H864   H     0.64555   0.42158   0.56458   0.00000  Uiso   1.00
H865   H     0.34597   0.35165   0.55541   0.00000  Uiso   1.00
H866   H     0.43595   0.33731   0.58639   0.00000  Uiso   1.00
H867   H     0.49289   0.39312   0.62438   0.00000  Uiso   1.00
H868   H     0.50711   0.60688   0.37563   0.00000  Uiso   1.00
H869   H     0.56406   0.66269   0.41362   0.00000  Uiso   1.00
H870   H     0.65405   0.64834   0.44459   0.00000  Uiso   1.00
H871   H     0.35446   0.57840   0.43541   0.00000  Uiso   1.00
H872   H     0.63145   0.52273   0.39635   0.00000  Uiso   1.00
H873   H     0.55903   0.37435   0.55736   0.00000  Uiso   1.00
H874   H     0.34926   0.45071   0.43463   0.00000  Uiso   1.00
H875   H     0.65074   0.54929   0.56537   0.00000  Uiso   1.00
H876   H     0.41001   0.35355   0.41586   0.00000  Uiso   1.00
H877   H     0.58998   0.64645   0.58414   0.00000  Uiso   1.00
H878   H     0.41041   0.43227   0.35710   0.00000  Uiso   1.00
H879   H     0.58955   0.56776   0.64289   0.00000  Uiso   1.00
H880   H     0.36856   0.47726   0.60364   0.00000  Uiso   1.00
N881   N     0.50001   0.50001   0.61736   0.00000  Uiso   1.00
N882   N     0.49999   0.49999   0.38264   0.00000  Uiso   1.00
O883   O     0.50000   0.43989   0.53958   0.00000  Uiso   1.00
O884   O     0.34386   0.53720   0.54797   0.00000  Uiso   1.00
O885   O     0.43064   0.37411   0.43628   0.00000  Uiso   1.00
O886   O     0.56936   0.62589   0.56372   0.00000  Uiso   1.00
O887   O     0.43652   0.44688   0.37913   0.00000  Uiso   1.00
O888   O     0.56348   0.55312   0.62087   0.00000  Uiso   1.00
O889   O     0.50000   0.56011   0.46042   0.00000  Uiso   1.00
O890   O     0.50000   0.43988   0.46039   0.00000  Uiso   1.00
O891   O     0.50000   0.56012   0.53961   0.00000  Uiso   1.00
O892   O     0.42495   0.50000   0.53046   0.00000  Uiso   1.00
O893   O     0.57505   0.50000   0.46954   0.00000  Uiso   1.00
O894   O     0.42494   0.49999   0.45127   0.00000  Uiso   1.00
O895   O     0.57506   0.50001   0.54873   0.00000  Uiso   1.00
O896   O     0.65614   0.46280   0.45204   0.00000  Uiso   1.00
C897   C     0.83259   0.42084   0.49996   0.00000  Uiso   1.00
C898   C     0.86645   0.35623   0.53262   0.00000  Uiso   1.00
C899   C     0.83440   0.62382   0.50011   0.00000  Uiso   1.00
C900   C     0.83226   0.37618   0.49989   0.00000  Uiso   1.00
C901   C     0.80149   0.47308   0.35602   0.00000  Uiso   1.00
C902   C     0.86518   0.52692   0.64398   0.00000  Uiso   1.00
C903   C     0.80183   0.47252   0.63950   0.00000  Uiso   1.00
C904   C     0.86484   0.52748   0.36051   0.00000  Uiso   1.00
C905   C     0.76943   0.44032   0.61278   0.00000  Uiso   1.00
C906   C     0.71750   0.44739   0.59793   0.00000  Uiso   1.00
C907   C     0.68532   0.41568   0.57668   0.00000  Uiso   1.00
C908   C     0.83408   0.57916   0.50004   0.00000  Uiso   1.00
C909   C     0.70424   0.37619   0.57180   0.00000  Uiso   1.00
C910   C     0.75499   0.36816   0.58915   0.00000  Uiso   1.00
C911   C     0.78724   0.39988   0.61031   0.00000  Uiso   1.00
C912   C     0.89724   0.55968   0.38722   0.00000  Uiso   1.00
C913   C     0.87943   0.60011   0.38970   0.00000  Uiso   1.00
C914   C     0.91169   0.63184   0.41086   0.00000  Uiso   1.00
C915   C     0.96244   0.62380   0.42821   0.00000  Uiso   1.00
C916   C     0.98136   0.58431   0.42332   0.00000  Uiso   1.00
C917   C     0.94917   0.55260   0.40206   0.00000  Uiso   1.00
C918   C     0.73495   0.49812   0.48860   0.00000  Uiso   1.00
C919   C     0.93172   0.50188   0.51140   0.00000  Uiso   1.00
C920   C     0.68000   0.49097   0.48445   0.00000  Uiso   1.00
C921   C     0.98667   0.50903   0.51555   0.00000  Uiso   1.00
C922   C     0.79867   0.35358   0.46708   0.00000  Uiso   1.00
C923   C     0.86800   0.64642   0.53292   0.00000  Uiso   1.00
C924   C     0.80022   0.64377   0.46738   0.00000  Uiso   1.00
Cu925  Cu    0.83333   0.50001   0.54689   0.00000  Uiso   1.00
Cu926  Cu    0.83333   0.49999   0.45311   0.00000  Uiso   1.00
H927   H     0.77431   0.62565   0.44264   0.00000  Uiso   1.00
H928   H     0.97888   0.42158   0.56458   0.00000  Uiso   1.00
H929   H     0.67931   0.35165   0.55541   0.00000  Uiso   1.00
H930   H     0.76929   0.33731   0.58639   0.00000  Uiso   1.00
H931   H     0.82623   0.39312   0.62438   0.00000  Uiso   1.00
H932   H     0.84045   0.60688   0.37563   0.00000  Uiso   1.00
H933   H     0.89740   0.66269   0.41362   0.00000  Uiso   1.00
H934   H     0.98738   0.64834   0.44459   0.00000  Uiso   1.00
H935   H     0.68779   0.57840   0.43541   0.00000  Uiso   1.00
H936   H     0.96478   0.52273   0.39635   0.00000  Uiso   1.00
H937   H     0.89236   0.37435   0.55736   0.00000  Uiso   1.00
H938   H     0.68260   0.45071   0.43463   0.00000  Uiso   1.00
H939   H     0.98407   0.54929   0.56537   0.00000  Uiso   1.00
H940   H     0.74335   0.35355   0.41586   0.00000  Uiso   1.00
H941   H     0.92332   0.64645   0.58414   0.00000  Uiso   1.00
H942   H     0.74375   0.43227   0.35710   0.00000  Uiso   1.00
H943   H     0.92289   0.56776   0.64289   0.00000  Uiso   1.00
H944   H     0.70189   0.47726   0.60364   0.00000  Uiso   1.00
N945   N     0.83335   0.50001   0.61736   0.00000  Uiso   1.00
N946   N     0.83332   0.49999   0.38264   0.00000  Uiso   1.00
O947   O     0.83333   0.43989   0.53958   0.00000  Uiso   1.00
O948   O     0.67719   0.53720   0.54797   0.00000  Uiso   1.00
O949   O     0.76397   0.37411   0.43628   0.00000  Uiso   1.00
O950   O     0.90269   0.62589   0.56372   0.00000  Uiso   1.00
O951   O     0.76986   0.44688   0.37913   0.00000  Uiso   1.00
O952   O     0.89681   0.55312   0.62087   0.00000  Uiso   1.00
O953   O     0.83334   0.56011   0.46042   0.00000  Uiso   1.00
O954   O     0.83333   0.43988   0.46039   0.00000  Uiso   1.00
O955   O     0.83334   0.56012   0.53961   0.00000  Uiso   1.00
O956   O     0.75828   0.50000   0.53046   0.00000  Uiso   1.00
O957   O     0.90839   0.50000   0.46954   0.00000  Uiso   1.00
O958   O     0.75828   0.49999   0.45127   0.00000  Uiso   1.00
O959   O     0.90839   0.50001   0.54873   0.00000  Uiso   1.00
O960   O     0.98947   0.46280   0.45204   0.00000  Uiso   1.00
C961   C     0.16592   0.75418   0.49996   0.00000  Uiso   1.00
C962   C     0.19978   0.68957   0.53262   0.00000  Uiso   1.00
C963   C     0.16774   0.95715   0.50011   0.00000  Uiso   1.00
C964   C     0.16560   0.70951   0.49989   0.00000  Uiso   1.00
C965   C     0.13482   0.80641   0.35602   0.00000  Uiso   1.00
C966   C     0.19851   0.86025   0.64398   0.00000  Uiso   1.00
C967   C     0.13516   0.80585   0.63950   0.00000  Uiso   1.00
C968   C     0.19817   0.86081   0.36051   0.00000  Uiso   1.00
C969   C     0.10276   0.77365   0.61278   0.00000  Uiso   1.00
C970   C     0.05084   0.78073   0.59793   0.00000  Uiso   1.00
C971   C     0.01866   0.74902   0.57668   0.00000  Uiso   1.00
C972   C     0.16741   0.91249   0.50004   0.00000  Uiso   1.00
C973   C     0.03758   0.70953   0.57180   0.00000  Uiso   1.00
C974   C     0.08832   0.70149   0.58915   0.00000  Uiso   1.00
C975   C     0.12058   0.73322   0.61031   0.00000  Uiso   1.00
C976   C     0.23058   0.89301   0.38722   0.00000  Uiso   1.00
C977   C     0.21277   0.93345   0.38970   0.00000  Uiso   1.00
C978   C     0.24502   0.96517   0.41086   0.00000  Uiso   1.00
C979   C     0.29577   0.95713   0.42821   0.00000  Uiso   1.00
C980   C     0.31469   0.91764   0.42332   0.00000  Uiso   1.00
C981   C     0.28250   0.88593   0.40206   0.00000  Uiso   1.00
C982   C     0.06828   0.83145   0.48860   0.00000  Uiso   1.00
C983   C     0.26505   0.83522   0.51140   0.00000  Uiso   1.00
C984   C     0.01333   0.82430   0.48445   0.00000  Uiso   1.00
C985   C     0.32000   0.84236   0.51555   0.00000  Uiso   1.00
C986   C     0.13200   0.68691   0.46708   0.00000  Uiso   1.00
C987   C     0.20133   0.97975   0.53292   0.00000  Uiso   1.00
C988   C     0.13355   0.97710   0.46738   0.00000  Uiso   1.00
Cu989  Cu    0.16667   0.83334   0.54689   0.00000  Uiso   1.00
Cu990  Cu    0.16667   0.83333   0.45311   0.00000  Uiso   1.00
H991   H     0.10764   0.95899   0.44264   0.00000  Uiso   1.00
H992   H     0.31222   0.75492   0.56458   0.00000  Uiso   1.00
H993   H     0.01264   0.68498   0.55541   0.00000  Uiso   1.00
H994   H     0.10262   0.67064   0.58639   0.00000  Uiso   1.00
H995   H     0.15956   0.72645   0.62438   0.00000  Uiso   1.00
H996   H     0.17378   0.94022   0.37563   0.00000  Uiso   1.00
H997   H     0.23073   0.99602   0.41362   0.00000  Uiso   1.00
H998   H     0.32071   0.98167   0.44459   0.00000  Uiso   1.00
H999   H     0.02113   0.91174   0.43541   0.00000  Uiso   1.00
H1000  H     0.29811   0.85607   0.39635   0.00000  Uiso   1.00
H1001  H     0.22569   0.70768   0.55736   0.00000  Uiso   1.00
H1002  H     0.01593   0.78404   0.43463   0.00000  Uiso   1.00
H1003  H     0.31740   0.88263   0.56537   0.00000  Uiso   1.00
H1004  H     0.07668   0.68688   0.41586   0.00000  Uiso   1.00
H1005  H     0.25665   0.97978   0.58414   0.00000  Uiso   1.00
H1006  H     0.07708   0.76561   0.35710   0.00000  Uiso   1.00
H1007  H     0.25622   0.90109   0.64289   0.00000  Uiso   1.00
H1008  H     0.03522   0.81059   0.60364   0.00000  Uiso   1.00
N1009  N     0.16668   0.83334   0.61736   0.00000  Uiso   1.00
N1010  N     0.16665   0.83332   0.38264   0.00000  Uiso   1.00
O1011  O     0.16666   0.77322   0.53958   0.00000  Uiso   1.00
O1012  O     0.01053   0.87053   0.54797   0.00000  Uiso   1.00
O1013  O     0.09731   0.70745   0.43628   0.00000  Uiso   1.00
O1014  O     0.23602   0.95922   0.56372   0.00000  Uiso   1.00
O1015  O     0.10319   0.78021   0.37913   0.00000  Uiso   1.00
O1016  O     0.23014   0.88645   0.62087   0.00000  Uiso   1.00
O1017  O     0.16667   0.89345   0.46042   0.00000  Uiso   1.00
O1018  O     0.16666   0.77321   0.46039   0.00000  Uiso   1.00
O1019  O     0.16667   0.89346   0.53961   0.00000  Uiso   1.00
O1020  O     0.09161   0.83334   0.53046   0.00000  Uiso   1.00
O1021  O     0.24172   0.83333   0.46954   0.00000  Uiso   1.00
O1022  O     0.09161   0.83333   0.45127   0.00000  Uiso   1.00
O1023  O     0.24172   0.83334   0.54873   0.00000  Uiso   1.00
O1024  O     0.32281   0.79614   0.45204   0.00000  Uiso   1.00
C1025  C     0.49925   0.75418   0.49996   0.00000  Uiso   1.00
C1026  C     0.53311   0.68957   0.53262   0.00000  Uiso   1.00
C1027  C     0.50107   0.95715   0.50011   0.00000  Uiso   1.00
C1028  C     0.49893   0.70951   0.49989   0.00000  Uiso   1.00
C1029  C     0.46815   0.80641   0.35602   0.00000  Uiso   1.00
C1030  C     0.53185   0.86025   0.64398   0.00000  Uiso   1.00
C1031  C     0.46850   0.80585   0.63950   0.00000  Uiso   1.00
C1032  C     0.53150   0.86081   0.36051   0.00000  Uiso   1.00
C1033  C     0.43609   0.77365   0.61278   0.00000  Uiso   1.00
C1034  C     0.38417   0.78073   0.59793   0.00000  Uiso   1.00
C1035  C     0.35199   0.74902   0.57668   0.00000  Uiso   1.00
C1036  C     0.50075   0.91249   0.50004   0.00000  Uiso   1.00
C1037  C     0.37091   0.70953   0.57180   0.00000  Uiso   1.00
C1038  C     0.42166   0.70149   0.58915   0.00000  Uiso   1.00
C1039  C     0.45391   0.73322   0.61031   0.00000  Uiso   1.00
C1040  C     0.56391   0.89301   0.38722   0.00000  Uiso   1.00
C1041  C     0.54610   0.93345   0.38970   0.00000  Uiso   1.00
C1042  C     0.57836   0.96517   0.41086   0.00000  Uiso   1.00
C1043  C     0.62911   0.95713   0.42821   0.00000  Uiso   1.00
C1044  C     0.64802   0.91764   0.42332   0.00000  Uiso   1.00
C1045  C     0.61584   0.88593   0.40206   0.00000  Uiso   1.00
C1046  C     0.40162   0.83145   0.48860   0.00000  Uiso   1.00
C1047  C     0.59838   0.83522   0.51140   0.00000  Uiso   1.00
C1048  C     0.34667   0.82430   0.48445   0.00000  Uiso   1.00
C1049  C     0.65333   0.84236   0.51555   0.00000  Uiso   1.00
C1050  C     0.46534   0.68691   0.46708   0.00000  Uiso   1.00
C1051  C     0.53466   0.97975   0.53292   0.00000  Uiso   1.00
C1052  C     0.46689   0.97710   0.46738   0.00000  Uiso   1.00
Cu1053 Cu    0.50000   0.83334   0.54689   0.00000  Uiso   1.00
Cu1054 Cu    0.50000   0.83333   0.45311   0.00000  Uiso   1.00
H1055  H     0.44097   0.95899   0.44264   0.00000  Uiso   1.00
H1056  H     0.64555   0.75492   0.56458   0.00000  Uiso   1.00
H1057  H     0.34597   0.68498   0.55541   0.00000  Uiso   1.00
H1058  H     0.43595   0.67064   0.58639   0.00000  Uiso   1.00
H1059  H     0.49289   0.72645   0.62438   0.00000  Uiso   1.00
H1060  H     0.50711   0.94022   0.37563   0.00000  Uiso   1.00
H1061  H     0.56406   0.99602   0.41362   0.00000  Uiso   1.00
H1062  H     0.65405   0.98167   0.44459   0.00000  Uiso   1.00
H1063  H     0.35446   0.91174   0.43541   0.00000  Uiso   1.00
H1064  H     0.63145   0.85607   0.39635   0.00000  Uiso   1.00
H1065  H     0.55903   0.70768   0.55736   0.00000  Uiso   1.00
H1066  H     0.34926   0.78404   0.43463   0.00000  Uiso   1.00
H1067  H     0.65074   0.88263   0.56537   0.00000  Uiso   1.00
H1068  H     0.41001   0.68688   0.41586   0.00000  Uiso   1.00
H1069  H     0.58998   0.97978   0.58414   0.00000  Uiso   1.00
H1070  H     0.41041   0.76561   0.35710   0.00000  Uiso   1.00
H1071  H     0.58955   0.90109   0.64289   0.00000  Uiso   1.00
H1072  H     0.36856   0.81059   0.60364   0.00000  Uiso   1.00
N1073  N     0.50001   0.83334   0.61736   0.00000  Uiso   1.00
N1074  N     0.49999   0.83332   0.38264   0.00000  Uiso   1.00
O1075  O     0.50000   0.77322   0.53958   0.00000  Uiso   1.00
O1076  O     0.34386   0.87053   0.54797   0.00000  Uiso   1.00
O1077  O     0.43064   0.70745   0.43628   0.00000  Uiso   1.00
O1078  O     0.56936   0.95922   0.56372   0.00000  Uiso   1.00
O1079  O     0.43652   0.78021   0.37913   0.00000  Uiso   1.00
O1080  O     0.56348   0.88645   0.62087   0.00000  Uiso   1.00
O1081  O     0.50000   0.89345   0.46042   0.00000  Uiso   1.00
O1082  O     0.50000   0.77321   0.46039   0.00000  Uiso   1.00
O1083  O     0.50000   0.89346   0.53961   0.00000  Uiso   1.00
O1084  O     0.42495   0.83334   0.53046   0.00000  Uiso   1.00
O1085  O     0.57505   0.83333   0.46954   0.00000  Uiso   1.00
O1086  O     0.42494   0.83333   0.45127   0.00000  Uiso   1.00
O1087  O     0.57506   0.83334   0.54873   0.00000  Uiso   1.00
O1088  O     0.65614   0.79614   0.45204   0.00000  Uiso   1.00
C1089  C     0.83259   0.75418   0.49996   0.00000  Uiso   1.00
C1090  C     0.86645   0.68957   0.53262   0.00000  Uiso   1.00
C1091  C     0.83440   0.95715   0.50011   0.00000  Uiso   1.00
C1092  C     0.83226   0.70951   0.49989   0.00000  Uiso   1.00
C1093  C     0.80149   0.80641   0.35602   0.00000  Uiso   1.00
C1094  C     0.86518   0.86025   0.64398   0.00000  Uiso   1.00
C1095  C     0.80183   0.80585   0.63950   0.00000  Uiso   1.00
C1096  C     0.86484   0.86081   0.36051   0.00000  Uiso   1.00
C1097  C     0.76943   0.77365   0.61278   0.00000  Uiso   1.00
C1098  C     0.71750   0.78073   0.59793   0.00000  Uiso   1.00
C1099  C     0.68532   0.74902   0.57668   0.00000  Uiso   1.00
C1100  C     0.83408   0.91249   0.50004   0.00000  Uiso   1.00
C1101  C     0.70424   0.70953   0.57180   0.00000  Uiso   1.00
C1102  C     0.75499   0.70149   0.58915   0.00000  Uiso   1.00
C1103  C     0.78724   0.73322   0.61031   0.00000  Uiso   1.00
C1104  C     0.89724   0.89301   0.38722   0.00000  Uiso   1.00
C1105  C     0.87943   0.93345   0.38970   0.00000  Uiso   1.00
C1106  C     0.91169   0.96517   0.41086   0.00000  Uiso   1.00
C1107  C     0.96244   0.95713   0.42821   0.00000  Uiso   1.00
C1108  C     0.98136   0.91764   0.42332   0.00000  Uiso   1.00
C1109  C     0.94917   0.88593   0.40206   0.00000  Uiso   1.00
C1110  C     0.73495   0.83145   0.48860   0.00000  Uiso   1.00
C1111  C     0.93172   0.83522   0.51140   0.00000  Uiso   1.00
C1112  C     0.68000   0.82430   0.48445   0.00000  Uiso   1.00
C1113  C     0.98667   0.84236   0.51555   0.00000  Uiso   1.00
C1114  C     0.79867   0.68691   0.46708   0.00000  Uiso   1.00
C1115  C     0.86800   0.97975   0.53292   0.00000  Uiso   1.00
C1116  C     0.80022   0.97710   0.46738   0.00000  Uiso   1.00
Cu1117 Cu    0.83333   0.83334   0.54689   0.00000  Uiso   1.00
Cu1118 Cu    0.83333   0.83333   0.45311   0.00000  Uiso   1.00
H1119  H     0.77431   0.95899   0.44264   0.00000  Uiso   1.00
H1120  H     0.97888   0.75492   0.56458   0.00000  Uiso   1.00
H1121  H     0.67931   0.68498   0.55541   0.00000  Uiso   1.00
H1122  H     0.76929   0.67064   0.58639   0.00000  Uiso   1.00
H1123  H     0.82623   0.72645   0.62438   0.00000  Uiso   1.00
H1124  H     0.84045   0.94022   0.37563   0.00000  Uiso   1.00
H1125  H     0.89740   0.99602   0.41362   0.00000  Uiso   1.00
H1126  H     0.98738   0.98167   0.44459   0.00000  Uiso   1.00
H1127  H     0.68779   0.91174   0.43541   0.00000  Uiso   1.00
H1128  H     0.96478   0.85607   0.39635   0.00000  Uiso   1.00
H1129  H     0.89236   0.70768   0.55736   0.00000  Uiso   1.00
H1130  H     0.68260   0.78404   0.43463   0.00000  Uiso   1.00
H1131  H     0.98407   0.88263   0.56537   0.00000  Uiso   1.00
H1132  H     0.74335   0.68688   0.41586   0.00000  Uiso   1.00
H1133  H     0.92332   0.97978   0.58414   0.00000  Uiso   1.00
H1134  H     0.74375   0.76561   0.35710   0.00000  Uiso   1.00
H1135  H     0.92289   0.90109   0.64289   0.00000  Uiso   1.00
H1136  H     0.70189   0.81059   0.60364   0.00000  Uiso   1.00
N1137  N     0.83335   0.83334   0.61736   0.00000  Uiso   1.00
N1138  N     0.83332   0.83332   0.38264   0.00000  Uiso   1.00
O1139  O     0.83333   0.77322   0.53958   0.00000  Uiso   1.00
O1140  O     0.67719   0.87053   0.54797   0.00000  Uiso   1.00
O1141  O     0.76397   0.70745   0.43628   0.00000  Uiso   1.00
O1142  O     0.90269   0.95922   0.56372   0.00000  Uiso   1.00
O1143  O     0.76986   0.78021   0.37913   0.00000  Uiso   1.00
O1144  O     0.89681   0.88645   0.62087   0.00000  Uiso   1.00
O1145  O     0.83334   0.89345   0.46042   0.00000  Uiso   1.00
O1146  O     0.83333   0.77321   0.46039   0.00000  Uiso   1.00
O1147  O     0.83334   0.89346   0.53961   0.00000  Uiso   1.00
O1148  O     0.75828   0.83334   0.53046   0.00000  Uiso   1.00
O1149  O     0.90839   0.83333   0.46954   0.00000  Uiso   1.00
O1150  O     0.75828   0.83333   0.45127   0.00000  Uiso   1.00
O1151  O     0.90839   0.83334   0.54873   0.00000  Uiso   1.00
O1152  O     0.98947   0.79614   0.45204   0.00000  Uiso   1.00
C1153  C     0.16592   0.08751   0.83329   0.00000  Uiso   1.00
C1154  C     0.19978   0.02290   0.86596   0.00000  Uiso   1.00
C1155  C     0.16774   0.29049   0.83344   0.00000  Uiso   1.00
C1156  C     0.16560   0.04285   0.83322   0.00000  Uiso   1.00
C1157  C     0.13482   0.13975   0.68935   0.00000  Uiso   1.00
C1158  C     0.19851   0.19359   0.97732   0.00000  Uiso   1.00
C1159  C     0.13516   0.13919   0.97283   0.00000  Uiso   1.00
C1160  C     0.19817   0.19415   0.69384   0.00000  Uiso   1.00
C1161  C     0.10276   0.10698   0.94611   0.00000  Uiso   1.00
C1162  C     0.05084   0.11406   0.93127   0.00000  Uiso   1.00
C1163  C     0.01866   0.08235   0.91001   0.00000  Uiso   1.00
C1164  C     0.16741   0.24582   0.83338   0.00000  Uiso   1.00
C1165  C     0.03758   0.04286   0.90513   0.00000  Uiso   1.00
C1166  C     0.08832   0.03482   0.92248   0.00000  Uiso   1.00
C1167  C     0.12058   0.06655   0.94364   0.00000  Uiso   1.00
C1168  C     0.23058   0.22635   0.72056   0.00000  Uiso   1.00
C1169  C     0.21277   0.26678   0.72303   0.00000  Uiso   1.00
C1170  C     0.24502   0.29850   0.74419   0.00000  Uiso   1.00
C1171  C     0.29577   0.29046   0.76154   0.00000  Uiso   1.00
C1172  C     0.31469   0.25097   0.75665   0.00000  Uiso   1.00
C1173  C     0.28250   0.21927   0.73539   0.00000  Uiso   1.00
C1174  C     0.06828   0.16478   0.82194   0.00000  Uiso   1.00
C1175  C     0.26505   0.16855   0.84473   0.00000  Uiso   1.00
C1176  C     0.01333   0.15764   0.81778   0.00000  Uiso   1.00
C1177  C     0.32000   0.17569   0.84889   0.00000  Uiso   1.00
C1178  C     0.13200   0.02025   0.80042   0.00000  Uiso   1.00
C1179  C     0.20133   0.31309   0.86625   0.00000  Uiso   1.00
C1180  C     0.13355   0.31043   0.80071   0.00000  Uiso   1.00
Cu1181 Cu    0.16667   0.16667   0.88022   0.00000  Uiso   1.00
Cu1182 Cu    0.16667   0.16666   0.78645   0.00000  Uiso   1.00
H1183  H     0.10764   0.29232   0.77597   0.00000  Uiso   1.00
H1184  H     0.31222   0.08825   0.89791   0.00000  Uiso   1.00
H1185  H     0.01264   0.01831   0.88874   0.00000  Uiso   1.00
H1186  H     0.10262   0.00398   0.91973   0.00000  Uiso   1.00
H1187  H     0.15956   0.05978   0.95771   0.00000  Uiso   1.00
H1188  H     0.17378   0.27355   0.70897   0.00000  Uiso   1.00
H1189  H     0.23073   0.32935   0.74695   0.00000  Uiso   1.00
H1190  H     0.32071   0.31501   0.77793   0.00000  Uiso   1.00
H1191  H     0.02113   0.24507   0.76874   0.00000  Uiso   1.00
H1192  H     0.29811   0.18940   0.72968   0.00000  Uiso   1.00
H1193  H     0.22569   0.04101   0.89069   0.00000  Uiso   1.00
H1194  H     0.01593   0.11737   0.76796   0.00000  Uiso   1.00
H1195  H     0.31740   0.21596   0.89871   0.00000  Uiso   1.00
H1196  H     0.07668   0.02022   0.74920   0.00000  Uiso   1.00
H1197  H     0.25665   0.31312   0.91747   0.00000  Uiso   1.00
H1198  H     0.07708   0.09894   0.69044   0.00000  Uiso   1.00
H1199  H     0.25622   0.23442   0.97623   0.00000  Uiso   1.00
H1200  H     0.03522   0.14393   0.93698   0.00000  Uiso   1.00
N1201  N     0.16668   0.16668   0.95069   0.00000  Uiso   1.00
N1202  N     0.16665   0.16666   0.71597   0.00000  Uiso   1.00
O1203  O     0.16666   0.10655   0.87291   0.00000  Uiso   1.00
O1204  O     0.01053   0.20386   0.88130   0.00000  Uiso   1.00
O1205  O     0.09731   0.04078   0.76961   0.00000  Uiso   1.00
O1206  O     0.23602   0.29255   0.89705   0.00000  Uiso   1.00
O1207  O     0.10319   0.11355   0.71246   0.00000  Uiso   1.00
O1208  O     0.23014   0.21979   0.95420   0.00000  Uiso   1.00
O1209  O     0.16667   0.22678   0.79375   0.00000  Uiso   1.00
O1210  O     0.16666   0.10654   0.79372   0.00000  Uiso   1.00
O1211  O     0.16667   0.22679   0.87294   0.00000  Uiso   1.00
O1212  O     0.09161   0.16667   0.86379   0.00000  Uiso   1.00
O1213  O     0.24172   0.16666   0.80288   0.00000  Uiso   1.00
O1214  O     0.09161   0.16666   0.78460   0.00000  Uiso   1.00
O1215  O     0.24172   0.16667   0.88207   0.00000  Uiso   1.00
O1216  O     0.32281   0.12947   0.78537   0.00000  Uiso   1.00
C1217  C     0.49925   0.08751   0.83329   0.00000  Uiso   1.00
C1218  C     0.53311   0.02290   0.86596   0.00000  Uiso   1.00
C1219  C     0.50107   0.29049   0.83344   0.00000  Uiso   1.00
C1220  C     0.49893   0.04285   0.83322   0.00000  Uiso   1.00
C1221  C     0.46815   0.13975   0.68935   0.00000  Uiso   1.00
C1222  C     0.53185   0.19359   0.97732   0.00000  Uiso   1.00
C1223  C     0.46850   0.13919   0.97283   0.00000  Uiso   1.00
C1224  C     0.53150   0.19415   0.69384   0.00000  Uiso   1.00
C1225  C     0.43609   0.10698   0.94611   0.00000  Uiso   1.00
C1226  C     0.38417   0.11406   0.93127   0.00000  Uiso   1.00
C1227  C     0.35199   0.08235   0.91001   0.00000  Uiso   1.00
C1228  C     0.50075   0.24582   0.83338   0.00000  Uiso   1.00
C1229  C     0.37091   0.04286   0.90513   0.00000  Uiso   1.00
C1230  C     0.42166   0.03482   0.92248   0.00000  Uiso   1.00
C1231  C     0.45391   0.06655   0.94364   0.00000  Uiso   1.00
C1232  C     0.56391   0.22635   0.72056   0.00000  Uiso   1.00
C1233  C     0.54610   0.26678   0.72303   0.00000  Uiso   1.00
C1234  C     0.57836   0.29850   0.74419   0.00000  Uiso   1.00
C1235  C     0.62911   0.29046   0.76154   0.00000  Uiso   1.00
C1236  C     0.64802   0.25097   0.75665   0.00000  Uiso   1.00
C1237  C     0.61584   0.21927   0.73539   0.00000  Uiso   1.00
C1238  C     0.40162   0.16478   0.82194   0.00000  Uiso   1.00
C1239  C     0.59838   0.16855   0.84473   0.00000  Uiso   1.00
C1240  C     0.34667   0.15764   0.81778   0.00000  Uiso   1.00
C1241  C     0.65333   0.17569   0.84889   0.00000  Uiso   1.00
C1242  C     0.46534   0.02025   0.80042   0.00000  Uiso   1.00
C1243  C     0.53466   0.31309   0.86625   0.00000  Uiso   1.00
C1244  C     0.46689   0.31043   0.80071   0.00000  Uiso   1.00
Cu1245 Cu    0.50000   0.16667   0.88022   0.00000  Uiso   1.00
Cu1246 Cu    0.50000   0.16666   0.78645   0.00000  Uiso   1.00
H1247  H     0.44097   0.29232   0.77597   0.00000  Uiso   1.00
H1248  H     0.64555   0.08825   0.89791   0.00000  Uiso   1.00
H1249  H     0.34597   0.01831   0.88874   0.00000  Uiso   1.00
H1250  H     0.43595   0.00398   0.91973   0.00000  Uiso   1.00
H1251  H     0.49289   0.05978   0.95771   0.00000  Uiso   1.00
H1252  H     0.50711   0.27355   0.70897   0.00000  Uiso   1.00
H1253  H     0.56406   0.32935   0.74695   0.00000  Uiso   1.00
H1254  H     0.65405   0.31501   0.77793   0.00000  Uiso   1.00
H1255  H     0.35446   0.24507   0.76874   0.00000  Uiso   1.00
H1256  H     0.63145   0.18940   0.72968   0.00000  Uiso   1.00
H1257  H     0.55903   0.04101   0.89069   0.00000  Uiso   1.00
H1258  H     0.34926   0.11737   0.76796   0.00000  Uiso   1.00
H1259  H     0.65074   0.21596   0.89871   0.00000  Uiso   1.00
H1260  H     0.41001   0.02022   0.74920   0.00000  Uiso   1.00
H1261  H     0.58998   0.31312   0.91747   0.00000  Uiso   1.00
H1262  H     0.41041   0.09894   0.69044   0.00000  Uiso   1.00
H1263  H     0.58955   0.23442   0.97623   0.00000  Uiso   1.00
H1264  H     0.36856   0.14393   0.93698   0.00000  Uiso   1.00
N1265  N     0.50001   0.16668   0.95069   0.00000  Uiso   1.00
N1266  N     0.49999   0.16666   0.71597   0.00000  Uiso   1.00
O1267  O     0.50000   0.10655   0.87291   0.00000  Uiso   1.00
O1268  O     0.34386   0.20386   0.88130   0.00000  Uiso   1.00
O1269  O     0.43064   0.04078   0.76961   0.00000  Uiso   1.00
O1270  O     0.56936   0.29255   0.89705   0.00000  Uiso   1.00
O1271  O     0.43652   0.11355   0.71246   0.00000  Uiso   1.00
O1272  O     0.56348   0.21979   0.95420   0.00000  Uiso   1.00
O1273  O     0.50000   0.22678   0.79375   0.00000  Uiso   1.00
O1274  O     0.50000   0.10654   0.79372   0.00000  Uiso   1.00
O1275  O     0.50000   0.22679   0.87294   0.00000  Uiso   1.00
O1276  O     0.42495   0.16667   0.86379   0.00000  Uiso   1.00
O1277  O     0.57505   0.16666   0.80288   0.00000  Uiso   1.00
O1278  O     0.42494   0.16666   0.78460   0.00000  Uiso   1.00
O1279  O     0.57506   0.16667   0.88207   0.00000  Uiso   1.00
O1280  O     0.65614   0.12947   0.78537   0.00000  Uiso   1.00
C1281  C     0.83259   0.08751   0.83329   0.00000  Uiso   1.00
C1282  C     0.86645   0.02290   0.86596   0.00000  Uiso   1.00
C1283  C     0.83440   0.29049   0.83344   0.00000  Uiso   1.00
C1284  C     0.83226   0.04285   0.83322   0.00000  Uiso   1.00
C1285  C     0.80149   0.13975   0.68935   0.00000  Uiso   1.00
C1286  C     0.86518   0.19359   0.97732   0.00000  Uiso   1.00
C1287  C     0.80183   0.13919   0.97283   0.00000  Uiso   1.00
C1288  C     0.86484   0.19415   0.69384   0.00000  Uiso   1.00
C1289  C     0.76943   0.10698   0.94611   0.00000  Uiso   1.00
C1290  C     0.71750   0.11406   0.93127   0.00000  Uiso   1.00
C1291  C     0.68532   0.08235   0.91001   0.00000  Uiso   1.00
C1292  C     0.83408   0.24582   0.83338   0.00000  Uiso   1.00
C1293  C     0.70424   0.04286   0.90513   0.00000  Uiso   1.00
C1294  C     0.75499   0.03482   0.92248   0.00000  Uiso   1.00
C1295  C     0.78724   0.06655   0.94364   0.00000  Uiso   1.00
C1296  C     0.89724   0.22635   0.72056   0.00000  Uiso   1.00
C1297  C     0.87943   0.26678   0.72303   0.00000  Uiso   1.00
C1298  C     0.91169   0.29850   0.74419   0.00000  Uiso   1.00
C1299  C     0.96244   0.29046   0.76154   0.00000  Uiso   1.00
C1300  C     0.98136   0.25097   0.75665   0.00000  Uiso   1.00
C1301  C     0.94917   0.21927   0.73539   0.00000  Uiso   1.00
C1302  C     0.73495   0.16478   0.82194   0.00000  Uiso   1.00
C1303  C     0.93172   0.16855   0.84473   0.00000  Uiso   1.00
C1304  C     0.68000   0.15764   0.81778   0.00000  Uiso   1.00
C1305  C     0.98667   0.17569   0.84889   0.00000  Uiso   1.00
C1306  C     0.79867   0.02025   0.80042   0.00000  Uiso   1.00
C1307  C     0.86800   0.31309   0.86625   0.00000  Uiso   1.00
C1308  C     0.80022   0.31043   0.80071   0.00000  Uiso   1.00
Cu1309 Cu    0.83333   0.16667   0.88022   0.00000  Uiso   1.00
Cu1310 Cu    0.83333   0.16666   0.78645   0.00000  Uiso   1.00
H1311  H     0.77431   0.29232   0.77597   0.00000  Uiso   1.00
H1312  H     0.97888   0.08825   0.89791   0.00000  Uiso   1.00
H1313  H     0.67931   0.01831   0.88874   0.00000  Uiso   1.00
H1314  H     0.76929   0.00398   0.91973   0.00000  Uiso   1.00
H1315  H     0.82623   0.05978   0.95771   0.00000  Uiso   1.00
H1316  H     0.84045   0.27355   0.70897   0.00000  Uiso   1.00
H1317  H     0.89740   0.32935   0.74695   0.00000  Uiso   1.00
H1318  H     0.98738   0.31501   0.77793   0.00000  Uiso   1.00
H1319  H     0.68779   0.24507   0.76874   0.00000  Uiso   1.00
H1320  H     0.96478   0.18940   0.72968   0.00000  Uiso   1.00
H1321  H     0.89236   0.04101   0.89069   0.00000  Uiso   1.00
H1322  H     0.68260   0.11737   0.76796   0.00000  Uiso   1.00
H1323  H     0.98407   0.21596   0.89871   0.00000  Uiso   1.00
H1324  H     0.74335   0.02022   0.74920   0.00000  Uiso   1.00
H1325  H     0.92332   0.31312   0.91747   0.00000  Uiso   1.00
H1326  H     0.74375   0.09894   0.69044   0.00000  Uiso   1.00
H1327  H     0.92289   0.23442   0.97623   0.00000  Uiso   1.00
H1328  H     0.70189   0.14393   0.93698   0.00000  Uiso   1.00
N1329  N     0.83335   0.16668   0.95069   0.00000  Uiso   1.00
N1330  N     0.83332   0.16666   0.71597   0.00000  Uiso   1.00
O1331  O     0.83333   0.10655   0.87291   0.00000  Uiso   1.00
O1332  O     0.67719   0.20386   0.88130   0.00000  Uiso   1.00
O1333  O     0.76397   0.04078   0.76961   0.00000  Uiso   1.00
O1334  O     0.90269   0.29255   0.89705   0.00000  Uiso   1.00
O1335  O     0.76986   0.11355   0.71246   0.00000  Uiso   1.00
O1336  O     0.89681   0.21979   0.95420   0.00000  Uiso   1.00
O1337  O     0.83334   0.22678   0.79375   0.00000  Uiso   1.00
O1338  O     0.83333   0.10654   0.79372   0.00000  Uiso   1.00
O1339  O     0.83334   0.22679   0.87294   0.00000  Uiso   1.00
O1340  O     0.75828   0.16667   0.86379   0.00000  Uiso   1.00
O1341  O     0.90839   0.16666   0.80288   0.00000  Uiso   1.00
O1342  O     0.75828   0.16666   0.78460   0.00000  Uiso   1.00
O1343  O     0.90839   0.16667   0.88207   0.00000  Uiso   1.00
O1344  O     0.98947   0.12947   0.78537   0.00000  Uiso   1.00
C1345  C     0.16592   0.42084   0.83329   0.00000  Uiso   1.00
C1346  C     0.19978   0.35623   0.86596   0.00000  Uiso   1.00
C1347  C     0.16774   0.62382   0.83344   0.00000  Uiso   1.00
C1348  C     0.16560   0.37618   0.83322   0.00000  Uiso   1.00
C1349  C     0.13482   0.47308   0.68935   0.00000  Uiso   1.00
C1350  C     0.19851   0.52692   0.97732   0.00000  Uiso   1.00
C1351  C     0.13516   0.47252   0.97283   0.00000  Uiso   1.00
C1352  C     0.19817   0.52748   0.69384   0.00000  Uiso   1.00
C1353  C     0.10276   0.44032   0.94611   0.00000  Uiso   1.00
C1354  C     0.05084   0.44739   0.93127   0.00000  Uiso   1.00
C1355  C     0.01866   0.41568   0.91001   0.00000  Uiso   1.00
C1356  C     0.16741   0.57916   0.83338   0.00000  Uiso   1.00
C1357  C     0.03758   0.37619   0.90513   0.00000  Uiso   1.00
C1358  C     0.08832   0.36816   0.92248   0.00000  Uiso   1.00
C1359  C     0.12058   0.39988   0.94364   0.00000  Uiso   1.00
C1360  C     0.23058   0.55968   0.72056   0.00000  Uiso   1.00
C1361  C     0.21277   0.60011   0.72303   0.00000  Uiso   1.00
C1362  C     0.24502   0.63184   0.74419   0.00000  Uiso   1.00
C1363  C     0.29577   0.62380   0.76154   0.00000  Uiso   1.00
C1364  C     0.31469   0.58431   0.75665   0.00000  Uiso   1.00
C1365  C     0.28250   0.55260   0.73539   0.00000  Uiso   1.00
C1366  C     0.06828   0.49812   0.82194   0.00000  Uiso   1.00
C1367  C     0.26505   0.50188   0.84473   0.00000  Uiso   1.00
C1368  C     0.01333   0.49097   0.81778   0.00000  Uiso   1.00
C1369  C     0.32000   0.50903   0.84889   0.00000  Uiso   1.00
C1370  C     0.13200   0.35358   0.80042   0.00000  Uiso   1.00
C1371  C     0.20133   0.64642   0.86625   0.00000  Uiso   1.00
C1372  C     0.13355   0.64377   0.80071   0.00000  Uiso   1.00
Cu1373 Cu    0.16667   0.50001   0.88022   0.00000  Uiso   1.00
Cu1374 Cu    0.16667   0.49999   0.78645   0.00000  Uiso   1.00
H1375  H     0.10764   0.62565   0.77597   0.00000  Uiso   1.00
H1376  H     0.31222   0.42158   0.89791   0.00000  Uiso   1.00
H1377  H     0.01264   0.35165   0.88874   0.00000  Uiso   1.00
H1378  H     0.10262   0.33731   0.91973   0.00000  Uiso   1.00
H1379  H     0.15956   0.39312   0.95771   0.00000  Uiso   1.00
H1380  H     0.17378   0.60688   0.70897   0.00000  Uiso   1.00
H1381  H     0.23073   0.66269   0.74695   0.00000  Uiso   1.00
H1382  H     0.32071   0.64834   0.77793   0.00000  Uiso   1.00
H1383  H     0.02113   0.57840   0.76874   0.00000  Uiso   1.00
H1384  H     0.29811   0.52273   0.72968   0.00000  Uiso   1.00
H1385  H     0.22569   0.37435   0.89069   0.00000  Uiso   1.00
H1386  H     0.01593   0.45071   0.76796   0.00000  Uiso   1.00
H1387  H     0.31740   0.54929   0.89871   0.00000  Uiso   1.00
H1388  H     0.07668   0.35355   0.74920   0.00000  Uiso   1.00
H1389  H     0.25665   0.64645   0.91747   0.00000  Uiso   1.00
H1390  H     0.07708   0.43227   0.69044   0.00000  Uiso   1.00
H1391  H     0.25622   0.56776   0.97623   0.00000  Uiso   1.00
H1392  H     0.03522   0.47726   0.93698   0.00000  Uiso   1.00
N1393  N     0.16668   0.50001   0.95069   0.00000  Uiso   1.00
N1394  N     0.16665   0.49999   0.71597   0.00000  Uiso   1.00
O1395  O     0.16666   0.43989   0.87291   0.00000  Uiso   1.00
O1396  O     0.01053   0.53720   0.88130   0.00000  Uiso   1.00
O1397  O     0.09731   0.37411   0.76961   0.00000  Uiso   1.00
O1398  O     0.23602   0.62589   0.89705   0.00000  Uiso   1.00
O1399  O     0.10319   0.44688   0.71246   0.00000  Uiso   1.00
O1400  O     0.23014   0.55312   0.95420   0.00000  Uiso   1.00
O1401  O     0.16667   0.56011   0.79375   0.00000  Uiso   1.00
O1402  O     0.16666   0.43988   0.79372   0.00000  Uiso   1.00
O1403  O     0.16667   0.56012   0.87294   0.00000  Uiso   1.00
O1404  O     0.09161   0.50000   0.86379   0.00000  Uiso   1.00
O1405  O     0.24172   0.50000   0.80288   0.00000  Uiso   1.00
O1406  O     0.09161   0.49999   0.78460   0.00000  Uiso   1.00
O1407  O     0.24172   0.50001   0.88207   0.00000  Uiso   1.00
O1408  O     0.32281   0.46280   0.78537   0.00000  Uiso   1.00
C1409  C     0.49925   0.42084   0.83329   0.00000  Uiso   1.00
C1410  C     0.53311   0.35623   0.86596   0.00000  Uiso   1.00
C1411  C     0.50107   0.62382   0.83344   0.00000  Uiso   1.00
C1412  C     0.49893   0.37618   0.83322   0.00000  Uiso   1.00
C1413  C     0.46815   0.47308   0.68935   0.00000  Uiso   1.00
C1414  C     0.53185   0.52692   0.97732   0.00000  Uiso   1.00
C1415  C     0.46850   0.47252   0.97283   0.00000  Uiso   1.00
C1416  C     0.53150   0.52748   0.69384   0.00000  Uiso   1.00
C1417  C     0.43609   0.44032   0.94611   0.00000  Uiso   1.00
C1418  C     0.38417   0.44739   0.93127   0.00000  Uiso   1.00
C1419  C     0.35199   0.41568   0.91001   0.00000  Uiso   1.00
C1420  C     0.50075   0.57916   0.83338   0.00000  Uiso   1.00
C1421  C     0.37091   0.37619   0.90513   0.00000  Uiso   1.00
C1422  C     0.42166   0.36816   0.92248   0.00000  Uiso   1.00
C1423  C     0.45391   0.39988   0.94364   0.00000  Uiso   1.00
C1424  C     0.56391   0.55968   0.72056   0.00000  Uiso   1.00
C1425  C     0.54610   0.60011   0.72303   0.00000  Uiso   1.00
C1426  C     0.57836   0.63184   0.74419   0.00000  Uiso   1.00
C1427  C     0.62911   0.62380   0.76154   0.00000  Uiso   1.00
C1428  C     0.64802   0.58431   0.75665   0.00000  Uiso   1.00
C1429  C     0.61584   0.55260   0.73539   0.00000  Uiso   1.00
C1430  C     0.40162   0.49812   0.82194   0.00000  Uiso   1.00
C1431  C     0.59838   0.50188   0.84473   0.00000  Uiso   1.00
C1432  C     0.34667   0.49097   0.81778   0.00000  Uiso   1.00
C1433  C     0.65333   0.50903   0.84889   0.00000  Uiso   1.00
C1434  C     0.46534   0.35358   0.80042   0.00000  Uiso   1.00
C1435  C     0.53466   0.64642   0.86625   0.00000  Uiso   1.00
C1436  C     0.46689   0.64377   0.80071   0.00000  Uiso   1.00
Cu1437 Cu    0.50000   0.50001   0.88022   0.00000  Uiso   1.00
Cu1438 Cu    0.50000   0.49999   0.78645   0.00000  Uiso   1.00
H1439  H     0.44097   0.62565   0.77597   0.00000  Uiso   1.00
H1440  H     0.64555   0.42158   0.89791   0.00000  Uiso   1.00
H1441  H     0.34597   0.35165   0.88874   0.00000  Uiso   1.00
H1442  H     0.43595   0.33731   0.91973   0.00000  Uiso   1.00
H1443  H     0.49289   0.39312   0.95771   0.00000  Uiso   1.00
H1444  H     0.50711   0.60688   0.70897   0.00000  Uiso   1.00
H1445  H     0.56406   0.66269   0.74695   0.00000  Uiso   1.00
H1446  H     0.65405   0.64834   0.77793   0.00000  Uiso   1.00
H1447  H     0.35446   0.57840   0.76874   0.00000  Uiso   1.00
H1448  H     0.63145   0.52273   0.72968   0.00000  Uiso   1.00
H1449  H     0.55903   0.37435   0.89069   0.00000  Uiso   1.00
H1450  H     0.34926   0.45071   0.76796   0.00000  Uiso   1.00
H1451  H     0.65074   0.54929   0.89871   0.00000  Uiso   1.00
H1452  H     0.41001   0.35355   0.74920   0.00000  Uiso   1.00
H1453  H     0.58998   0.64645   0.91747   0.00000  Uiso   1.00
H1454  H     0.41041   0.43227   0.69044   0.00000  Uiso   1.00
H1455  H     0.58955   0.56776   0.97623   0.00000  Uiso   1.00
H1456  H     0.36856   0.47726   0.93698   0.00000  Uiso   1.00
N1457  N     0.50001   0.50001   0.95069   0.00000  Uiso   1.00
N1458  N     0.49999   0.49999   0.71597   0.00000  Uiso   1.00
O1459  O     0.50000   0.43989   0.87291   0.00000  Uiso   1.00
O1460  O     0.34386   0.53720   0.88130   0.00000  Uiso   1.00
O1461  O     0.43064   0.37411   0.76961   0.00000  Uiso   1.00
O1462  O     0.56936   0.62589   0.89705   0.00000  Uiso   1.00
O1463  O     0.43652   0.44688   0.71246   0.00000  Uiso   1.00
O1464  O     0.56348   0.55312   0.95420   0.00000  Uiso   1.00
O1465  O     0.50000   0.56011   0.79375   0.00000  Uiso   1.00
O1466  O     0.50000   0.43988   0.79372   0.00000  Uiso   1.00
O1467  O     0.50000   0.56012   0.87294   0.00000  Uiso   1.00
O1468  O     0.42495   0.50000   0.86379   0.00000  Uiso   1.00
O1469  O     0.57505   0.50000   0.80288   0.00000  Uiso   1.00
O1470  O     0.42494   0.49999   0.78460   0.00000  Uiso   1.00
O1471  O     0.57506   0.50001   0.88207   0.00000  Uiso   1.00
O1472  O     0.65614   0.46280   0.78537   0.00000  Uiso   1.00
C1473  C     0.83259   0.42084   0.83329   0.00000  Uiso   1.00
C1474  C     0.86645   0.35623   0.86596   0.00000  Uiso   1.00
C1475  C     0.83440   0.62382   0.83344   0.00000  Uiso   1.00
C1476  C     0.83226   0.37618   0.83322   0.00000  Uiso   1.00
C1477  C     0.80149   0.47308   0.68935   0.00000  Uiso   1.00
C1478  C     0.86518   0.52692   0.97732   0.00000  Uiso   1.00
C1479  C     0.80183   0.47252   0.97283   0.00000  Uiso   1.00
C1480  C     0.86484   0.52748   0.69384   0.00000  Uiso   1.00
C1481  C     0.76943   0.44032   0.94611   0.00000  Uiso   1.00
C1482  C     0.71750   0.44739   0.93127   0.00000  Uiso   1.00
C1483  C     0.68532   0.41568   0.91001   0.00000  Uiso   1.00
C1484  C     0.83408   0.57916   0.83338   0.00000  Uiso   1.00
C1485  C     0.70424   0.37619   0.90513   0.00000  Uiso   1.00
C1486  C     0.75499   0.36816   0.92248   0.00000  Uiso   1.00
C1487  C     0.78724   0.39988   0.94364   0.00000  Uiso   1.00
C1488  C     0.89724   0.55968   0.72056   0.00000  Uiso   1.00
C1489  C     0.87943   0.60011   0.72303   0.00000  Uiso   1.00
C1490  C     0.91169   0.63184   0.74419   0.00000  Uiso   1.00
C1491  C     0.96244   0.62380   0.76154   0.00000  Uiso   1.00
C1492  C     0.98136   0.58431   0.75665   0.00000  Uiso   1.00
C1493  C     0.94917   0.55260   0.73539   0.00000  Uiso   1.00
C1494  C     0.73495   0.49812   0.82194   0.00000  Uiso   1.00
C1495  C     0.93172   0.50188   0.84473   0.00000  Uiso   1.00
C1496  C     0.68000   0.49097   0.81778   0.00000  Uiso   1.00
C1497  C     0.98667   0.50903   0.84889   0.00000  Uiso   1.00
C1498  C     0.79867   0.35358   0.80042   0.00000  Uiso   1.00
C1499  C     0.86800   0.64642   0.86625   0.00000  Uiso   1.00
C1500  C     0.80022   0.64377   0.80071   0.00000  Uiso   1.00
Cu1501 Cu    0.83333   0.50001   0.88022   0.00000  Uiso   1.00
Cu1502 Cu    0.83333   0.49999   0.78645   0.00000  Uiso   1.00
H1503  H     0.77431   0.62565   0.77597   0.00000  Uiso   1.00
H1504  H     0.97888   0.42158   0.89791   0.00000  Uiso   1.00
H1505  H     0.67931   0.35165   0.88874   0.00000  Uiso   1.00
H1506  H     0.76929   0.33731   0.91973   0.00000  Uiso   1.00
H1507  H     0.82623   0.39312   0.95771   0.00000  Uiso   1.00
H1508  H     0.84045   0.60688   0.70897   0.00000  Uiso   1.00
H1509  H     0.89740   0.66269   0.74695   0.00000  Uiso   1.00
H1510  H     0.98738   0.64834   0.77793   0.00000  Uiso   1.00
H1511  H     0.68779   0.57840   0.76874   0.00000  Uiso   1.00
H1512  H     0.96478   0.52273   0.72968   0.00000  Uiso   1.00
H1513  H     0.89236   0.37435   0.89069   0.00000  Uiso   1.00
H1514  H     0.68260   0.45071   0.76796   0.00000  Uiso   1.00
H1515  H     0.98407   0.54929   0.89871   0.00000  Uiso   1.00
H1516  H     0.74335   0.35355   0.74920   0.00000  Uiso   1.00
H1517  H     0.92332   0.64645   0.91747   0.00000  Uiso   1.00
H1518  H     0.74375   0.43227   0.69044   0.00000  Uiso   1.00
H1519  H     0.92289   0.56776   0.97623   0.00000  Uiso   1.00
H1520  H     0.70189   0.47726   0.93698   0.00000  Uiso   1.00
N1521  N     0.83335   0.50001   0.95069   0.00000  Uiso   1.00
N1522  N     0.83332   0.49999   0.71597   0.00000  Uiso   1.00
O1523  O     0.83333   0.43989   0.87291   0.00000  Uiso   1.00
O1524  O     0.67719   0.53720   0.88130   0.00000  Uiso   1.00
O1525  O     0.76397   0.37411   0.76961   0.00000  Uiso   1.00
O1526  O     0.90269   0.62589   0.89705   0.00000  Uiso   1.00
O1527  O     0.76986   0.44688   0.71246   0.00000  Uiso   1.00
O1528  O     0.89681   0.55312   0.95420   0.00000  Uiso   1.00
O1529  O     0.83334   0.56011   0.79375   0.00000  Uiso   1.00
O1530  O     0.83333   0.43988   0.79372   0.00000  Uiso   1.00
O1531  O     0.83334   0.56012   0.87294   0.00000  Uiso   1.00
O1532  O     0.75828   0.50000   0.86379   0.00000  Uiso   1.00
O1533  O     0.90839   0.50000   0.80288   0.00000  Uiso   1.00
O1534  O     0.75828   0.49999   0.78460   0.00000  Uiso   1.00
O1535  O     0.90839   0.50001   0.88207   0.00000  Uiso   1.00
O1536  O     0.98947   0.46280   0.78537   0.00000  Uiso   1.00
C1537  C     0.16592   0.75418   0.83329   0.00000  Uiso   1.00
C1538  C     0.19978   0.68957   0.86596   0.00000  Uiso   1.00
C1539  C     0.16774   0.95715   0.83344   0.00000  Uiso   1.00
C1540  C     0.16560   0.70951   0.83322   0.00000  Uiso   1.00
C1541  C     0.13482   0.80641   0.68935   0.00000  Uiso   1.00
C1542  C     0.19851   0.86025   0.97732   0.00000  Uiso   1.00
C1543  C     0.13516   0.80585   0.97283   0.00000  Uiso   1.00
C1544  C     0.19817   0.86081   0.69384   0.00000  Uiso   1.00
C1545  C     0.10276   0.77365   0.94611   0.00000  Uiso   1.00
C1546  C     0.05084   0.78073   0.93127   0.00000  Uiso   1.00
C1547  C     0.01866   0.74902   0.91001   0.00000  Uiso   1.00
C1548  C     0.16741   0.91249   0.83338   0.00000  Uiso   1.00
C1549  C     0.03758   0.70953   0.90513   0.00000  Uiso   1.00
C1550  C     0.08832   0.70149   0.92248   0.00000  Uiso   1.00
C1551  C     0.12058   0.73322   0.94364   0.00000  Uiso   1.00
C1552  C     0.23058   0.89301   0.72056   0.00000  Uiso   1.00
C1553  C     0.21277   0.93345   0.72303   0.00000  Uiso   1.00
C1554  C     0.24502   0.96517   0.74419   0.00000  Uiso   1.00
C1555  C     0.29577   0.95713   0.76154   0.00000  Uiso   1.00
C1556  C     0.31469   0.91764   0.75665   0.00000  Uiso   1.00
C1557  C     0.28250   0.88593   0.73539   0.00000  Uiso   1.00
C1558  C     0.06828   0.83145   0.82194   0.00000  Uiso   1.00
C1559  C     0.26505   0.83522   0.84473   0.00000  Uiso   1.00
C1560  C     0.01333   0.82430   0.81778   0.00000  Uiso   1.00
C1561  C     0.32000   0.84236   0.84889   0.00000  Uiso   1.00
C1562  C     0.13200   0.68691   0.80042   0.00000  Uiso   1.00
C1563  C     0.20133   0.97975   0.86625   0.00000  Uiso   1.00
C1564  C     0.13355   0.97710   0.80071   0.00000  Uiso   1.00
Cu1565 Cu    0.16667   0.83334   0.88022   0.00000  Uiso   1.00
Cu1566 Cu    0.16667   0.83333   0.78645   0.00000  Uiso   1.00
H1567  H     0.10764   0.95899   0.77597   0.00000  Uiso   1.00
H1568  H     0.31222   0.75492   0.89791   0.00000  Uiso   1.00
H1569  H     0.01264   0.68498   0.88874   0.00000  Uiso   1.00
H1570  H     0.10262   0.67064   0.91973   0.00000  Uiso   1.00
H1571  H     0.15956   0.72645   0.95771   0.00000  Uiso   1.00
H1572  H     0.17378   0.94022   0.70897   0.00000  Uiso   1.00
H1573  H     0.23073   0.99602   0.74695   0.00000  Uiso   1.00
H1574  H     0.32071   0.98167   0.77793   0.00000  Uiso   1.00
H1575  H     0.02113   0.91174   0.76874   0.00000  Uiso   1.00
H1576  H     0.29811   0.85607   0.72968   0.00000  Uiso   1.00
H1577  H     0.22569   0.70768   0.89069   0.00000  Uiso   1.00
H1578  H     0.01593   0.78404   0.76796   0.00000  Uiso   1.00
H1579  H     0.31740   0.88263   0.89871   0.00000  Uiso   1.00
H1580  H     0.07668   0.68688   0.74920   0.00000  Uiso   1.00
H1581  H     0.25665   0.97978   0.91747   0.00000  Uiso   1.00
H1582  H     0.07708   0.76561   0.69044   0.00000  Uiso   1.00
H1583  H     0.25622   0.90109   0.97623   0.00000  Uiso   1.00
H1584  H     0.03522   0.81059   0.93698   0.00000  Uiso   1.00
N1585  N     0.16668   0.83334   0.95069   0.00000  Uiso   1.00
N1586  N     0.16665   0.83332   0.71597   0.00000  Uiso   1.00
O1587  O     0.16666   0.77322   0.87291   0.00000  Uiso   1.00
O1588  O     0.01053   0.87053   0.88130   0.00000  Uiso   1.00
O1589  O     0.09731   0.70745   0.76961   0.00000  Uiso   1.00
O1590  O     0.23602   0.95922   0.89705   0.00000  Uiso   1.00
O1591  O     0.10319   0.78021   0.71246   0.00000  Uiso   1.00
O1592  O     0.23014   0.88645   0.95420   0.00000  Uiso   1.00
O1593  O     0.16667   0.89345   0.79375   0.00000  Uiso   1.00
O1594  O     0.16666   0.77321   0.79372   0.00000  Uiso   1.00
O1595  O     0.16667   0.89346   0.87294   0.00000  Uiso   1.00
O1596  O     0.09161   0.83334   0.86379   0.00000  Uiso   1.00
O1597  O     0.24172   0.83333   0.80288   0.00000  Uiso   1.00
O1598  O     0.09161   0.83333   0.78460   0.00000  Uiso   1.00
O1599  O     0.24172   0.83334   0.88207   0.00000  Uiso   1.00
O1600  O     0.32281   0.79614   0.78537   0.00000  Uiso   1.00
C1601  C     0.49925   0.75418   0.83329   0.00000  Uiso   1.00
C1602  C     0.53311   0.68957   0.86596   0.00000  Uiso   1.00
C1603  C     0.50107   0.95715   0.83344   0.00000  Uiso   1.00
C1604  C     0.49893   0.70951   0.83322   0.00000  Uiso   1.00
C1605  C     0.46815   0.80641   0.68935   0.00000  Uiso   1.00
C1606  C     0.53185   0.86025   0.97732   0.00000  Uiso   1.00
C1607  C     0.46850   0.80585   0.97283   0.00000  Uiso   1.00
C1608  C     0.53150   0.86081   0.69384   0.00000  Uiso   1.00
C1609  C     0.43609   0.77365   0.94611   0.00000  Uiso   1.00
C1610  C     0.38417   0.78073   0.93127   0.00000  Uiso   1.00
C1611  C     0.35199   0.74902   0.91001   0.00000  Uiso   1.00
C1612  C     0.50075   0.91249   0.83338   0.00000  Uiso   1.00
C1613  C     0.37091   0.70953   0.90513   0.00000  Uiso   1.00
C1614  C     0.42166   0.70149   0.92248   0.00000  Uiso   1.00
C1615  C     0.45391   0.73322   0.94364   0.00000  Uiso   1.00
C1616  C     0.56391   0.89301   0.72056   0.00000  Uiso   1.00
C1617  C     0.54610   0.93345   0.72303   0.00000  Uiso   1.00
C1618  C     0.57836   0.96517   0.74419   0.00000  Uiso   1.00
C1619  C     0.62911   0.95713   0.76154   0.00000  Uiso   1.00
C1620  C     0.64802   0.91764   0.75665   0.00000  Uiso   1.00
C1621  C     0.61584   0.88593   0.73539   0.00000  Uiso   1.00
C1622  C     0.40162   0.83145   0.82194   0.00000  Uiso   1.00
C1623  C     0.59838   0.83522   0.84473   0.00000  Uiso   1.00
C1624  C     0.34667   0.82430   0.81778   0.00000  Uiso   1.00
C1625  C     0.65333   0.84236   0.84889   0.00000  Uiso   1.00
C1626  C     0.46534   0.68691   0.80042   0.00000  Uiso   1.00
C1627  C     0.53466   0.97975   0.86625   0.00000  Uiso   1.00
C1628  C     0.46689   0.97710   0.80071   0.00000  Uiso   1.00
Cu1629 Cu    0.50000   0.83334   0.88022   0.00000  Uiso   1.00
Cu1630 Cu    0.50000   0.83333   0.78645   0.00000  Uiso   1.00
H1631  H     0.44097   0.95899   0.77597   0.00000  Uiso   1.00
H1632  H     0.64555   0.75492   0.89791   0.00000  Uiso   1.00
H1633  H     0.34597   0.68498   0.88874   0.00000  Uiso   1.00
H1634  H     0.43595   0.67064   0.91973   0.00000  Uiso   1.00
H1635  H     0.49289   0.72645   0.95771   0.00000  Uiso   1.00
H1636  H     0.50711   0.94022   0.70897   0.00000  Uiso   1.00
H1637  H     0.56406   0.99602   0.74695   0.00000  Uiso   1.00
H1638  H     0.65405   0.98167   0.77793   0.00000  Uiso   1.00
H1639  H     0.35446   0.91174   0.76874   0.00000  Uiso   1.00
H1640  H     0.63145   0.85607   0.72968   0.00000  Uiso   1.00
H1641  H     0.55903   0.70768   0.89069   0.00000  Uiso   1.00
H1642  H     0.34926   0.78404   0.76796   0.00000  Uiso   1.00
H1643  H     0.65074   0.88263   0.89871   0.00000  Uiso   1.00
H1644  H     0.41001   0.68688   0.74920   0.00000  Uiso   1.00
H1645  H     0.58998   0.97978   0.91747   0.00000  Uiso   1.00
H1646  H     0.41041   0.76561   0.69044   0.00000  Uiso   1.00
H1647  H     0.58955   0.90109   0.97623   0.00000  Uiso   1.00
H1648  H     0.36856   0.81059   0.93698   0.00000  Uiso   1.00
N1649  N     0.50001   0.83334   0.95069   0.00000  Uiso   1.00
N1650  N     0.49999   0.83332   0.71597   0.00000  Uiso   1.00
O1651  O     0.50000   0.77322   0.87291   0.00000  Uiso   1.00
O1652  O     0.34386   0.87053   0.88130   0.00000  Uiso   1.00
O1653  O     0.43064   0.70745   0.76961   0.00000  Uiso   1.00
O1654  O     0.56936   0.95922   0.89705   0.00000  Uiso   1.00
O1655  O     0.43652   0.78021   0.71246   0.00000  Uiso   1.00
O1656  O     0.56348   0.88645   0.95420   0.00000  Uiso   1.00
O1657  O     0.50000   0.89345   0.79375   0.00000  Uiso   1.00
O1658  O     0.50000   0.77321   0.79372   0.00000  Uiso   1.00
O1659  O     0.50000   0.89346   0.87294   0.00000  Uiso   1.00
O1660  O     0.42495   0.83334   0.86379   0.00000  Uiso   1.00
O1661  O     0.57505   0.83333   0.80288   0.00000  Uiso   1.00
O1662  O     0.42494   0.83333   0.78460   0.00000  Uiso   1.00
O1663  O     0.57506   0.83334   0.88207   0.00000  Uiso   1.00
O1664  O     0.65614   0.79614   0.78537   0.00000  Uiso   1.00
C1665  C     0.83259   0.75418   0.83329   0.00000  Uiso   1.00
C1666  C     0.86645   0.68957   0.86596   0.00000  Uiso   1.00
C1667  C     0.83440   0.95715   0.83344   0.00000  Uiso   1.00
C1668  C     0.83226   0.70951   0.83322   0.00000  Uiso   1.00
C1669  C     0.80149   0.80641   0.68935   0.00000  Uiso   1.00
C1670  C     0.86518   0.86025   0.97732   0.00000  Uiso   1.00
C1671  C     0.80183   0.80585   0.97283   0.00000  Uiso   1.00
C1672  C     0.86484   0.86081   0.69384   0.00000  Uiso   1.00
C1673  C     0.76943   0.77365   0.94611   0.00000  Uiso   1.00
C1674  C     0.71750   0.78073   0.93127   0.00000  Uiso   1.00
C1675  C     0.68532   0.74902   0.91001   0.00000  Uiso   1.00
C1676  C     0.83408   0.91249   0.83338   0.00000  Uiso   1.00
C1677  C     0.70424   0.70953   0.90513   0.00000  Uiso   1.00
C1678  C     0.75499   0.70149   0.92248   0.00000  Uiso   1.00
C1679  C     0.78724   0.73322   0.94364   0.00000  Uiso   1.00
C1680  C     0.89724   0.89301   0.72056   0.00000  Uiso   1.00
C1681  C     0.87943   0.93345   0.72303   0.00000  Uiso   1.00
C1682  C     0.91169   0.96517   0.74419   0.00000  Uiso   1.00
C1683  C     0.96244   0.95713   0.76154   0.00000  Uiso   1.00
C1684  C     0.98136   0.91764   0.75665   0.00000  Uiso   1.00
C1685  C     0.94917   0.88593   0.73539   0.00000  Uiso   1.00
C1686  C     0.73495   0.83145   0.82194   0.00000  Uiso   1.00
C1687  C     0.93172   0.83522   0.84473   0.00000  Uiso   1.00
C1688  C     0.68000   0.82430   0.81778   0.00000  Uiso   1.00
C1689  C     0.98667   0.84236   0.84889   0.00000  Uiso   1.00
C1690  C     0.79867   0.68691   0.80042   0.00000  Uiso   1.00
C1691  C     0.86800   0.97975   0.86625   0.00000  Uiso   1.00
C1692  C     0.80022   0.97710   0.80071   0.00000  Uiso   1.00
Cu1693 Cu    0.83333   0.83334   0.88022   0.00000  Uiso   1.00
Cu1694 Cu    0.83333   0.83333   0.78645   0.00000  Uiso   1.00
H1695  H     0.77431   0.95899   0.77597   0.00000  Uiso   1.00
H1696  H     0.97888   0.75492   0.89791   0.00000  Uiso   1.00
H1697  H     0.67931   0.68498   0.88874   0.00000  Uiso   1.00
H1698  H     0.76929   0.67064   0.91973   0.00000  Uiso   1.00
H1699  H     0.82623   0.72645   0.95771   0.00000  Uiso   1.00
H1700  H     0.84045   0.94022   0.70897   0.00000  Uiso   1.00
H1701  H     0.89740   0.99602   0.74695   0.00000  Uiso   1.00
H1702  H     0.98738   0.98167   0.77793   0.00000  Uiso   1.00
H1703  H     0.68779   0.91174   0.76874   0.00000  Uiso   1.00
H1704  H     0.96478   0.85607   0.72968   0.00000  Uiso   1.00
H1705  H     0.89236   0.70768   0.89069   0.00000  Uiso   1.00
H1706  H     0.68260   0.78404   0.76796   0.00000  Uiso   1.00
H1707  H     0.98407   0.88263   0.89871   0.00000  Uiso   1.00
H1708  H     0.74335   0.68688   0.74920   0.00000  Uiso   1.00
H1709  H     0.92332   0.97978   0.91747   0.00000  Uiso   1.00
H1710  H     0.74375   0.76561   0.69044   0.00000  Uiso   1.00
H1711  H     0.92289   0.90109   0.97623   0.00000  Uiso   1.00
H1712  H     0.70189   0.81059   0.93698   0.00000  Uiso   1.00
N1713  N     0.83335   0.83334   0.95069   0.00000  Uiso   1.00
N1714  N     0.83332   0.83332   0.71597   0.00000  Uiso   1.00
O1715  O     0.83333   0.77322   0.87291   0.00000  Uiso   1.00
O1716  O     0.67719   0.87053   0.88130   0.00000  Uiso   1.00
O1717  O     0.76397   0.70745   0.76961   0.00000  Uiso   1.00
O1718  O     0.90269   0.95922   0.89705   0.00000  Uiso   1.00
O1719  O     0.76986   0.78021   0.71246   0.00000  Uiso   1.00
O1720  O     0.89681   0.88645   0.95420   0.00000  Uiso   1.00
O1721  O     0.83334   0.89345   0.79375   0.00000  Uiso   1.00
O1722  O     0.83333   0.77321   0.79372   0.00000  Uiso   1.00
O1723  O     0.83334   0.89346   0.87294   0.00000  Uiso   1.00
O1724  O     0.75828   0.83334   0.86379   0.00000  Uiso   1.00
O1725  O     0.90839   0.83333   0.80288   0.00000  Uiso   1.00
O1726  O     0.75828   0.83333   0.78460   0.00000  Uiso   1.00
O1727  O     0.90839   0.83334   0.88207   0.00000  Uiso   1.00
O1728  O     0.98947   0.79614   0.78537   0.00000  Uiso   1.00
loop_
_geom_bond_atom_site_label_1
_geom_bond_atom_site_label_2
_geom_bond_distance
_geom_bond_site_symmetry_2
_ccdc_geom_bond_type
C1     C4      1.441   .     S
C1     O58     1.295   .     A
C1     O51     1.298   .     A
C2     C4      1.397   .     A
C2     H41     1.084   .     S
C2     C411    1.394   1_545 S
C3     C27     1.404   .     A
C3     C28     1.397   .     A
C3     C12     1.441   .     S
C4     C26     1.404   .     A
C5     N50     1.359   .     A
C5     O55     1.382   .     S
C5     C1159   1.439   1_554 S
C6     N49     1.359   .     A
C6     O56     1.382   .     S
C6     C584    1.439   .     S
C7     N49     1.390   .     A
C7     C9      1.479   .     S
C7     C581    1.439   .     S
C8     N50     1.390   .     A
C8     C16     1.479   .     S
C8     C1158   1.439   1_554 S
C9     C10     1.403   .     A
C9     C15     1.406   .     A
C10    H48     1.081   .     S
C10    C11     1.399   .     A
C11    C13     1.397   .     A
C11    H160    1.082   1_455 S
C12    O57     1.298   .     A
C12    O59     1.295   .     A
C13    H33     1.083   .     S
C13    C14     1.397   .     A
C14    H34     1.082   .     S
C14    C15     1.399   .     A
C15    H35     1.083   .     S
C16    C21     1.403   .     A
C16    C17     1.406   .     A
C17    H36     1.083   .     S
C17    C18     1.399   .     A
C18    H37     1.082   .     S
C18    C19     1.397   .     A
C19    C20     1.397   .     A
C19    H38     1.083   .     S
C20    C21     1.399   .     A
C20    H103    1.082   .     S
C21    H40     1.081   .     S
C22    O62     1.296   .     A
C22    O60     1.290   .     A
C22    C24     1.438   .     S
C23    O63     1.296   .     A
C23    C25     1.438   .     S
C23    O61     1.290   .     A
C24    C153    1.344   1_455 S
C24    O192    1.387   1_455 S
C25    C88     1.344   .     S
C25    O116    1.387   .     S
C26    O53     1.381   .     S
C26    C412    1.394   1_545 S
C27    O54     1.381   .     S
C27    C194    1.394   .     S
C28    H31     1.084   .     S
C28    C218    1.394   .     S
Cu29   O63     1.957   .     S
Cu29   O60     1.966   .     S
Cu29   N49     2.032   .     S
Cu29   Cu30    2.704   .     S
Cu29   O51     1.952   .     S
Cu29   O59     1.950   .     S
Cu30   O58     1.950   .     S
Cu30   O62     1.957   .     S
Cu30   O57     1.952   .     S
Cu30   O61     1.966   .     S
Cu30   N50     2.032   .     S
H32    C75     1.082   .     S
H39    C148    1.082   1_455 S
H42    O192    0.991   1_455 S
H43    O116    0.991   .     S
H44    O53     0.992   .     S
H45    O54     0.992   .     S
H46    O55     0.986   .     S
H47    O56     0.986   .     S
O52    H171    0.991   1_455 S
O52    C153    1.387   1_455 S
O64    H106    0.991   .     S
O64    C88     1.387   .     S
C65    C68     1.441   .     S
C65    O122    1.295   .     A
C65    O115    1.298   .     A
C66    C68     1.397   .     A
C66    H105    1.084   .     S
C66    C475    1.394   1_545 S
C67    C91     1.404   .     A
C67    C92     1.397   .     A
C67    C76     1.441   .     S
C68    C90     1.404   .     A
C69    N114    1.359   .     A
C69    O119    1.382   .     S
C69    C1223   1.439   1_554 S
C70    N113    1.359   .     A
C70    O120    1.382   .     S
C70    C648    1.439   .     S
C71    N113    1.390   .     A
C71    C73     1.479   .     S
C71    C645    1.439   .     S
C72    N114    1.390   .     A
C72    C80     1.479   .     S
C72    C1222   1.439   1_554 S
C73    C74     1.403   .     A
C73    C79     1.406   .     A
C74    H112    1.081   .     S
C74    C75     1.399   .     A
C75    C77     1.397   .     A
C76    O121    1.298   .     A
C76    O123    1.295   .     A
C77    H97     1.083   .     S
C77    C78     1.397   .     A
C78    H98     1.082   .     S
C78    C79     1.399   .     A
C79    H99     1.083   .     S
C80    C85     1.403   .     A
C80    C81     1.406   .     A
C81    H100    1.083   .     S
C81    C82     1.399   .     A
C82    H101    1.082   .     S
C82    C83     1.397   .     A
C83    C84     1.397   .     A
C83    H102    1.083   .     S
C84    C85     1.399   .     A
C84    H167    1.082   .     S
C85    H104    1.081   .     S
C86    O126    1.296   .     A
C86    O124    1.290   .     A
C86    C88     1.438   .     S
C87    O127    1.296   .     A
C87    C89     1.438   .     S
C87    O125    1.290   .     A
C89    C152    1.344   .     S
C89    O180    1.387   .     S
C90    O117    1.381   .     S
C90    C476    1.394   1_545 S
C91    O118    1.381   .     S
C91    C258    1.394   .     S
C92    H95     1.084   .     S
C92    C282    1.394   .     S
Cu93   O127    1.957   .     S
Cu93   O124    1.966   .     S
Cu93   N113    2.032   .     S
Cu93   Cu94    2.704   .     S
Cu93   O115    1.952   .     S
Cu93   O123    1.950   .     S
Cu94   O122    1.950   .     S
Cu94   O126    1.957   .     S
Cu94   O121    1.952   .     S
Cu94   O125    1.966   .     S
Cu94   N114    2.032   .     S
H96    C139    1.082   .     S
H107   O180    0.991   .     S
H108   O117    0.992   .     S
H109   O118    0.992   .     S
H110   O119    0.986   .     S
H111   O120    0.986   .     S
O128   H170    0.991   .     S
O128   C152    1.387   .     S
C129   C132    1.441   .     S
C129   O186    1.295   .     A
C129   O179    1.298   .     A
C130   C132    1.397   .     A
C130   H169    1.084   .     S
C130   C539    1.394   1_545 S
C131   C155    1.404   .     A
C131   C156    1.397   .     A
C131   C140    1.441   .     S
C132   C154    1.404   .     A
C133   N178    1.359   .     A
C133   O183    1.382   .     S
C133   C1287   1.439   1_554 S
C134   N177    1.359   .     A
C134   O184    1.382   .     S
C134   C712    1.439   .     S
C135   N177    1.390   .     A
C135   C137    1.479   .     S
C135   C709    1.439   .     S
C136   N178    1.390   .     A
C136   C144    1.479   .     S
C136   C1286   1.439   1_554 S
C137   C138    1.403   .     A
C137   C143    1.406   .     A
C138   H176    1.081   .     S
C138   C139    1.399   .     A
C139   C141    1.397   .     A
C140   O185    1.298   .     A
C140   O187    1.295   .     A
C141   H161    1.083   .     S
C141   C142    1.397   .     A
C142   H162    1.082   .     S
C142   C143    1.399   .     A
C143   H163    1.083   .     S
C144   C149    1.403   .     A
C144   C145    1.406   .     A
C145   H164    1.083   .     S
C145   C146    1.399   .     A
C146   H165    1.082   .     S
C146   C147    1.397   .     A
C147   C148    1.397   .     A
C147   H166    1.083   .     S
C148   C149    1.399   .     A
C148   H39     1.082   1_655 S
C149   H168    1.081   .     S
C150   O190    1.296   .     A
C150   O188    1.290   .     A
C150   C152    1.438   .     S
C151   O191    1.296   .     A
C151   C153    1.438   .     S
C151   O189    1.290   .     A
C153   C24     1.344   1_655 S
C153   O52     1.387   1_655 S
C154   O181    1.381   .     S
C154   C540    1.394   1_545 S
C155   O182    1.381   .     S
C155   C322    1.394   .     S
C156   H159    1.084   .     S
C156   C346    1.394   .     S
Cu157  O191    1.957   .     S
Cu157  O188    1.966   .     S
Cu157  N177    2.032   .     S
Cu157  Cu158   2.704   .     S
Cu157  O179    1.952   .     S
Cu157  O187    1.950   .     S
Cu158  O186    1.950   .     S
Cu158  O190    1.957   .     S
Cu158  O185    1.952   .     S
Cu158  O189    1.966   .     S
Cu158  N178    2.032   .     S
H160   C11     1.082   1_655 S
H171   O52     0.991   1_655 S
H172   O181    0.992   .     S
H173   O182    0.992   .     S
H174   O183    0.986   .     S
H175   O184    0.986   .     S
O192   H42     0.991   1_655 S
O192   C24     1.387   1_655 S
C193   C196    1.441   .     S
C193   O250    1.295   .     A
C193   O243    1.298   .     A
C194   C196    1.397   .     A
C194   H233    1.084   .     S
C195   C219    1.404   .     A
C195   C220    1.397   .     A
C195   C204    1.441   .     S
C196   C218    1.404   .     A
C197   N242    1.359   .     A
C197   O247    1.382   .     S
C197   C1351   1.439   1_554 S
C198   N241    1.359   .     A
C198   O248    1.382   .     S
C198   C776    1.439   .     S
C199   N241    1.390   .     A
C199   C201    1.479   .     S
C199   C773    1.439   .     S
C200   N242    1.390   .     A
C200   C208    1.479   .     S
C200   C1350   1.439   1_554 S
C201   C202    1.403   .     A
C201   C207    1.406   .     A
C202   H240    1.081   .     S
C202   C203    1.399   .     A
C203   C205    1.397   .     A
C203   H352    1.082   1_455 S
C204   O249    1.298   .     A
C204   O251    1.295   .     A
C205   H225    1.083   .     S
C205   C206    1.397   .     A
C206   H226    1.082   .     S
C206   C207    1.399   .     A
C207   H227    1.083   .     S
C208   C213    1.403   .     A
C208   C209    1.406   .     A
C209   H228    1.083   .     S
C209   C210    1.399   .     A
C210   H229    1.082   .     S
C210   C211    1.397   .     A
C211   C212    1.397   .     A
C211   H230    1.083   .     S
C212   C213    1.399   .     A
C212   H295    1.082   .     S
C213   H232    1.081   .     S
C214   O254    1.296   .     A
C214   O252    1.290   .     A
C214   C216    1.438   .     S
C215   O255    1.296   .     A
C215   C217    1.438   .     S
C215   O253    1.290   .     A
C216   C345    1.344   1_455 S
C216   O384    1.387   1_455 S
C217   C280    1.344   .     S
C217   O308    1.387   .     S
C218   O245    1.381   .     S
C219   O246    1.381   .     S
C219   C386    1.394   .     S
C220   H223    1.084   .     S
C220   C410    1.394   .     S
Cu221  O255    1.957   .     S
Cu221  O252    1.966   .     S
Cu221  N241    2.032   .     S
Cu221  Cu222   2.704   .     S
Cu221  O243    1.952   .     S
Cu221  O251    1.950   .     S
Cu222  O250    1.950   .     S
Cu222  O254    1.957   .     S
Cu222  O249    1.952   .     S
Cu222  O253    1.966   .     S
Cu222  N242    2.032   .     S
H224   C267    1.082   .     S
H231   C340    1.082   1_455 S
H234   O384    0.991   1_455 S
H235   O308    0.991   .     S
H236   O245    0.992   .     S
H237   O246    0.992   .     S
H238   O247    0.986   .     S
H239   O248    0.986   .     S
O244   H363    0.991   1_455 S
O244   C345    1.387   1_455 S
O256   H298    0.991   .     S
O256   C280    1.387   .     S
C257   C260    1.441   .     S
C257   O314    1.295   .     A
C257   O307    1.298   .     A
C258   C260    1.397   .     A
C258   H297    1.084   .     S
C259   C283    1.404   .     A
C259   C284    1.397   .     A
C259   C268    1.441   .     S
C260   C282    1.404   .     A
C261   N306    1.359   .     A
C261   O311    1.382   .     S
C261   C1415   1.439   1_554 S
C262   N305    1.359   .     A
C262   O312    1.382   .     S
C262   C840    1.439   .     S
C263   N305    1.390   .     A
C263   C265    1.479   .     S
C263   C837    1.439   .     S
C264   N306    1.390   .     A
C264   C272    1.479   .     S
C264   C1414   1.439   1_554 S
C265   C266    1.403   .     A
C265   C271    1.406   .     A
C266   H304    1.081   .     S
C266   C267    1.399   .     A
C267   C269    1.397   .     A
C268   O313    1.298   .     A
C268   O315    1.295   .     A
C269   H289    1.083   .     S
C269   C270    1.397   .     A
C270   H290    1.082   .     S
C270   C271    1.399   .     A
C271   H291    1.083   .     S
C272   C277    1.403   .     A
C272   C273    1.406   .     A
C273   H292    1.083   .     S
C273   C274    1.399   .     A
C274   H293    1.082   .     S
C274   C275    1.397   .     A
C275   C276    1.397   .     A
C275   H294    1.083   .     S
C276   C277    1.399   .     A
C276   H359    1.082   .     S
C277   H296    1.081   .     S
C278   O318    1.296   .     A
C278   O316    1.290   .     A
C278   C280    1.438   .     S
C279   O319    1.296   .     A
C279   C281    1.438   .     S
C279   O317    1.290   .     A
C281   C344    1.344   .     S
C281   O372    1.387   .     S
C282   O309    1.381   .     S
C283   O310    1.381   .     S
C283   C450    1.394   .     S
C284   H287    1.084   .     S
C284   C474    1.394   .     S
Cu285  O319    1.957   .     S
Cu285  O316    1.966   .     S
Cu285  N305    2.032   .     S
Cu285  Cu286   2.704   .     S
Cu285  O307    1.952   .     S
Cu285  O315    1.950   .     S
Cu286  O314    1.950   .     S
Cu286  O318    1.957   .     S
Cu286  O313    1.952   .     S
Cu286  O317    1.966   .     S
Cu286  N306    2.032   .     S
H288   C331    1.082   .     S
H299   O372    0.991   .     S
H300   O309    0.992   .     S
H301   O310    0.992   .     S
H302   O311    0.986   .     S
H303   O312    0.986   .     S
O320   H362    0.991   .     S
O320   C344    1.387   .     S
C321   C324    1.441   .     S
C321   O378    1.295   .     A
C321   O371    1.298   .     A
C322   C324    1.397   .     A
C322   H361    1.084   .     S
C323   C347    1.404   .     A
C323   C348    1.397   .     A
C323   C332    1.441   .     S
C324   C346    1.404   .     A
C325   N370    1.359   .     A
C325   O375    1.382   .     S
C325   C1479   1.439   1_554 S
C326   N369    1.359   .     A
C326   O376    1.382   .     S
C326   C904    1.439   .     S
C327   N369    1.390   .     A
C327   C329    1.479   .     S
C327   C901    1.439   .     S
C328   N370    1.390   .     A
C328   C336    1.479   .     S
C328   C1478   1.439   1_554 S
C329   C330    1.403   .     A
C329   C335    1.406   .     A
C330   H368    1.081   .     S
C330   C331    1.399   .     A
C331   C333    1.397   .     A
C332   O377    1.298   .     A
C332   O379    1.295   .     A
C333   H353    1.083   .     S
C333   C334    1.397   .     A
C334   H354    1.082   .     S
C334   C335    1.399   .     A
C335   H355    1.083   .     S
C336   C341    1.403   .     A
C336   C337    1.406   .     A
C337   H356    1.083   .     S
C337   C338    1.399   .     A
C338   H357    1.082   .     S
C338   C339    1.397   .     A
C339   C340    1.397   .     A
C339   H358    1.083   .     S
C340   C341    1.399   .     A
C340   H231    1.082   1_655 S
C341   H360    1.081   .     S
C342   O382    1.296   .     A
C342   O380    1.290   .     A
C342   C344    1.438   .     S
C343   O383    1.296   .     A
C343   C345    1.438   .     S
C343   O381    1.290   .     A
C345   C216    1.344   1_655 S
C345   O244    1.387   1_655 S
C346   O373    1.381   .     S
C347   O374    1.381   .     S
C347   C514    1.394   .     S
C348   H351    1.084   .     S
C348   C538    1.394   .     S
Cu349  O383    1.957   .     S
Cu349  O380    1.966   .     S
Cu349  N369    2.032   .     S
Cu349  Cu350   2.704   .     S
Cu349  O371    1.952   .     S
Cu349  O379    1.950   .     S
Cu350  O378    1.950   .     S
Cu350  O382    1.957   .     S
Cu350  O377    1.952   .     S
Cu350  O381    1.966   .     S
Cu350  N370    2.032   .     S
H352   C203    1.082   1_655 S
H363   O244    0.991   1_655 S
H364   O373    0.992   .     S
H365   O374    0.992   .     S
H366   O375    0.986   .     S
H367   O376    0.986   .     S
O384   H234    0.991   1_655 S
O384   C216    1.387   1_655 S
C385   C388    1.441   .     S
C385   O442    1.295   .     A
C385   O435    1.298   .     A
C386   C388    1.397   .     A
C386   H425    1.084   .     S
C387   C411    1.404   .     A
C387   C412    1.397   .     A
C387   C396    1.441   .     S
C388   C410    1.404   .     A
C389   N434    1.359   .     A
C389   O439    1.382   .     S
C389   C1543   1.439   1_554 S
C390   N433    1.359   .     A
C390   O440    1.382   .     S
C390   C968    1.439   .     S
C391   N433    1.390   .     A
C391   C393    1.479   .     S
C391   C965    1.439   .     S
C392   N434    1.390   .     A
C392   C400    1.479   .     S
C392   C1542   1.439   1_554 S
C393   C394    1.403   .     A
C393   C399    1.406   .     A
C394   H432    1.081   .     S
C394   C395    1.399   .     A
C395   C397    1.397   .     A
C395   H544    1.082   1_455 S
C396   O441    1.298   .     A
C396   O443    1.295   .     A
C397   H417    1.083   .     S
C397   C398    1.397   .     A
C398   H418    1.082   .     S
C398   C399    1.399   .     A
C399   H419    1.083   .     S
C400   C405    1.403   .     A
C400   C401    1.406   .     A
C401   H420    1.083   .     S
C401   C402    1.399   .     A
C402   H421    1.082   .     S
C402   C403    1.397   .     A
C403   C404    1.397   .     A
C403   H422    1.083   .     S
C404   C405    1.399   .     A
C404   H487    1.082   .     S
C405   H424    1.081   .     S
C406   O446    1.296   .     A
C406   O444    1.290   .     A
C406   C408    1.438   .     S
C407   O447    1.296   .     A
C407   C409    1.438   .     S
C407   O445    1.290   .     A
C408   C537    1.344   1_455 S
C408   O576    1.387   1_455 S
C409   C472    1.344   .     S
C409   O500    1.387   .     S
C410   O437    1.381   .     S
C411   O438    1.381   .     S
C411   C2      1.394   1_565 S
C412   H415    1.084   .     S
C412   C26     1.394   1_565 S
Cu413  O447    1.957   .     S
Cu413  O444    1.966   .     S
Cu413  N433    2.032   .     S
Cu413  Cu414   2.704   .     S
Cu413  O435    1.952   .     S
Cu413  O443    1.950   .     S
Cu414  O442    1.950   .     S
Cu414  O446    1.957   .     S
Cu414  O441    1.952   .     S
Cu414  O445    1.966   .     S
Cu414  N434    2.032   .     S
H416   C459    1.082   .     S
H423   C532    1.082   1_455 S
H426   O576    0.991   1_455 S
H427   O500    0.991   .     S
H428   O437    0.992   .     S
H429   O438    0.992   .     S
H430   O439    0.986   .     S
H431   O440    0.986   .     S
O436   H555    0.991   1_455 S
O436   C537    1.387   1_455 S
O448   H490    0.991   .     S
O448   C472    1.387   .     S
C449   C452    1.441   .     S
C449   O506    1.295   .     A
C449   O499    1.298   .     A
C450   C452    1.397   .     A
C450   H489    1.084   .     S
C451   C475    1.404   .     A
C451   C476    1.397   .     A
C451   C460    1.441   .     S
C452   C474    1.404   .     A
C453   N498    1.359   .     A
C453   O503    1.382   .     S
C453   C1607   1.439   1_554 S
C454   N497    1.359   .     A
C454   O504    1.382   .     S
C454   C1032   1.439   .     S
C455   N497    1.390   .     A
C455   C457    1.479   .     S
C455   C1029   1.439   .     S
C456   N498    1.390   .     A
C456   C464    1.479   .     S
C456   C1606   1.439   1_554 S
C457   C458    1.403   .     A
C457   C463    1.406   .     A
C458   H496    1.081   .     S
C458   C459    1.399   .     A
C459   C461    1.397   .     A
C460   O505    1.298   .     A
C460   O507    1.295   .     A
C461   H481    1.083   .     S
C461   C462    1.397   .     A
C462   H482    1.082   .     S
C462   C463    1.399   .     A
C463   H483    1.083   .     S
C464   C469    1.403   .     A
C464   C465    1.406   .     A
C465   H484    1.083   .     S
C465   C466    1.399   .     A
C466   H485    1.082   .     S
C466   C467    1.397   .     A
C467   C468    1.397   .     A
C467   H486    1.083   .     S
C468   C469    1.399   .     A
C468   H551    1.082   .     S
C469   H488    1.081   .     S
C470   O510    1.296   .     A
C470   O508    1.290   .     A
C470   C472    1.438   .     S
C471   O511    1.296   .     A
C471   C473    1.438   .     S
C471   O509    1.290   .     A
C473   C536    1.344   .     S
C473   O564    1.387   .     S
C474   O501    1.381   .     S
C475   O502    1.381   .     S
C475   C66     1.394   1_565 S
C476   H479    1.084   .     S
C476   C90     1.394   1_565 S
Cu477  O511    1.957   .     S
Cu477  O508    1.966   .     S
Cu477  N497    2.032   .     S
Cu477  Cu478   2.704   .     S
Cu477  O499    1.952   .     S
Cu477  O507    1.950   .     S
Cu478  O506    1.950   .     S
Cu478  O510    1.957   .     S
Cu478  O505    1.952   .     S
Cu478  O509    1.966   .     S
Cu478  N498    2.032   .     S
H480   C523    1.082   .     S
H491   O564    0.991   .     S
H492   O501    0.992   .     S
H493   O502    0.992   .     S
H494   O503    0.986   .     S
H495   O504    0.986   .     S
O512   H554    0.991   .     S
O512   C536    1.387   .     S
C513   C516    1.441   .     S
C513   O570    1.295   .     A
C513   O563    1.298   .     A
C514   C516    1.397   .     A
C514   H553    1.084   .     S
C515   C539    1.404   .     A
C515   C540    1.397   .     A
C515   C524    1.441   .     S
C516   C538    1.404   .     A
C517   N562    1.359   .     A
C517   O567    1.382   .     S
C517   C1671   1.439   1_554 S
C518   N561    1.359   .     A
C518   O568    1.382   .     S
C518   C1096   1.439   .     S
C519   N561    1.390   .     A
C519   C521    1.479   .     S
C519   C1093   1.439   .     S
C520   N562    1.390   .     A
C520   C528    1.479   .     S
C520   C1670   1.439   1_554 S
C521   C522    1.403   .     A
C521   C527    1.406   .     A
C522   H560    1.081   .     S
C522   C523    1.399   .     A
C523   C525    1.397   .     A
C524   O569    1.298   .     A
C524   O571    1.295   .     A
C525   H545    1.083   .     S
C525   C526    1.397   .     A
C526   H546    1.082   .     S
C526   C527    1.399   .     A
C527   H547    1.083   .     S
C528   C533    1.403   .     A
C528   C529    1.406   .     A
C529   H548    1.083   .     S
C529   C530    1.399   .     A
C530   H549    1.082   .     S
C530   C531    1.397   .     A
C531   C532    1.397   .     A
C531   H550    1.083   .     S
C532   C533    1.399   .     A
C532   H423    1.082   1_655 S
C533   H552    1.081   .     S
C534   O574    1.296   .     A
C534   O572    1.290   .     A
C534   C536    1.438   .     S
C535   O575    1.296   .     A
C535   C537    1.438   .     S
C535   O573    1.290   .     A
C537   C408    1.344   1_655 S
C537   O436    1.387   1_655 S
C538   O565    1.381   .     S
C539   O566    1.381   .     S
C539   C130    1.394   1_565 S
C540   H543    1.084   .     S
C540   C154    1.394   1_565 S
Cu541  O575    1.957   .     S
Cu541  O572    1.966   .     S
Cu541  N561    2.032   .     S
Cu541  Cu542   2.704   .     S
Cu541  O563    1.952   .     S
Cu541  O571    1.950   .     S
Cu542  O570    1.950   .     S
Cu542  O574    1.957   .     S
Cu542  O569    1.952   .     S
Cu542  O573    1.966   .     S
Cu542  N562    2.032   .     S
H544   C395    1.082   1_655 S
H555   O436    0.991   1_655 S
H556   O565    0.992   .     S
H557   O566    0.992   .     S
H558   O567    0.986   .     S
H559   O568    0.986   .     S
O576   H426    0.991   1_655 S
O576   C408    1.387   1_655 S
C577   C580    1.441   .     S
C577   O634    1.295   .     A
C577   O627    1.298   .     A
C578   C580    1.397   .     A
C578   H617    1.084   .     S
C578   C987    1.394   1_545 S
C579   C603    1.404   .     A
C579   C604    1.397   .     A
C579   C588    1.441   .     S
C580   C602    1.404   .     A
C581   N626    1.359   .     A
C581   O631    1.382   .     S
C582   N625    1.359   .     A
C582   O632    1.382   .     S
C582   C1160   1.439   .     S
C583   N625    1.390   .     A
C583   C585    1.479   .     S
C583   C1157   1.439   .     S
C584   N626    1.390   .     A
C584   C592    1.479   .     S
C585   C586    1.403   .     A
C585   C591    1.406   .     A
C586   H624    1.081   .     S
C586   C587    1.399   .     A
C587   C589    1.397   .     A
C587   H736    1.082   1_455 S
C588   O633    1.298   .     A
C588   O635    1.295   .     A
C589   H609    1.083   .     S
C589   C590    1.397   .     A
C590   H610    1.082   .     S
C590   C591    1.399   .     A
C591   H611    1.083   .     S
C592   C597    1.403   .     A
C592   C593    1.406   .     A
C593   H612    1.083   .     S
C593   C594    1.399   .     A
C594   H613    1.082   .     S
C594   C595    1.397   .     A
C595   C596    1.397   .     A
C595   H614    1.083   .     S
C596   C597    1.399   .     A
C596   H679    1.082   .     S
C597   H616    1.081   .     S
C598   O638    1.296   .     A
C598   O636    1.290   .     A
C598   C600    1.438   .     S
C599   O639    1.296   .     A
C599   C601    1.438   .     S
C599   O637    1.290   .     A
C600   C729    1.344   1_455 S
C600   O768    1.387   1_455 S
C601   C664    1.344   .     S
C601   O692    1.387   .     S
C602   O629    1.381   .     S
C602   C988    1.394   1_545 S
C603   O630    1.381   .     S
C603   C770    1.394   .     S
C604   H607    1.084   .     S
C604   C794    1.394   .     S
Cu605  O639    1.957   .     S
Cu605  O636    1.966   .     S
Cu605  N625    2.032   .     S
Cu605  Cu606   2.704   .     S
Cu605  O627    1.952   .     S
Cu605  O635    1.950   .     S
Cu606  O634    1.950   .     S
Cu606  O638    1.957   .     S
Cu606  O633    1.952   .     S
Cu606  O637    1.966   .     S
Cu606  N626    2.032   .     S
H608   C651    1.082   .     S
H615   C724    1.082   1_455 S
H618   O768    0.991   1_455 S
H619   O692    0.991   .     S
H620   O629    0.992   .     S
H621   O630    0.992   .     S
H622   O631    0.986   .     S
H623   O632    0.986   .     S
O628   H747    0.991   1_455 S
O628   C729    1.387   1_455 S
O640   H682    0.991   .     S
O640   C664    1.387   .     S
C641   C644    1.441   .     S
C641   O698    1.295   .     A
C641   O691    1.298   .     A
C642   C644    1.397   .     A
C642   H681    1.084   .     S
C642   C1051   1.394   1_545 S
C643   C667    1.404   .     A
C643   C668    1.397   .     A
C643   C652    1.441   .     S
C644   C666    1.404   .     A
C645   N690    1.359   .     A
C645   O695    1.382   .     S
C646   N689    1.359   .     A
C646   O696    1.382   .     S
C646   C1224   1.439   .     S
C647   N689    1.390   .     A
C647   C649    1.479   .     S
C647   C1221   1.439   .     S
C648   N690    1.390   .     A
C648   C656    1.479   .     S
C649   C650    1.403   .     A
C649   C655    1.406   .     A
C650   H688    1.081   .     S
C650   C651    1.399   .     A
C651   C653    1.397   .     A
C652   O697    1.298   .     A
C652   O699    1.295   .     A
C653   H673    1.083   .     S
C653   C654    1.397   .     A
C654   H674    1.082   .     S
C654   C655    1.399   .     A
C655   H675    1.083   .     S
C656   C661    1.403   .     A
C656   C657    1.406   .     A
C657   H676    1.083   .     S
C657   C658    1.399   .     A
C658   H677    1.082   .     S
C658   C659    1.397   .     A
C659   C660    1.397   .     A
C659   H678    1.083   .     S
C660   C661    1.399   .     A
C660   H743    1.082   .     S
C661   H680    1.081   .     S
C662   O702    1.296   .     A
C662   O700    1.290   .     A
C662   C664    1.438   .     S
C663   O703    1.296   .     A
C663   C665    1.438   .     S
C663   O701    1.290   .     A
C665   C728    1.344   .     S
C665   O756    1.387   .     S
C666   O693    1.381   .     S
C666   C1052   1.394   1_545 S
C667   O694    1.381   .     S
C667   C834    1.394   .     S
C668   H671    1.084   .     S
C668   C858    1.394   .     S
Cu669  O703    1.957   .     S
Cu669  O700    1.966   .     S
Cu669  N689    2.032   .     S
Cu669  Cu670   2.704   .     S
Cu669  O691    1.952   .     S
Cu669  O699    1.950   .     S
Cu670  O698    1.950   .     S
Cu670  O702    1.957   .     S
Cu670  O697    1.952   .     S
Cu670  O701    1.966   .     S
Cu670  N690    2.032   .     S
H672   C715    1.082   .     S
H683   O756    0.991   .     S
H684   O693    0.992   .     S
H685   O694    0.992   .     S
H686   O695    0.986   .     S
H687   O696    0.986   .     S
O704   H746    0.991   .     S
O704   C728    1.387   .     S
C705   C708    1.441   .     S
C705   O762    1.295   .     A
C705   O755    1.298   .     A
C706   C708    1.397   .     A
C706   H745    1.084   .     S
C706   C1115   1.394   1_545 S
C707   C731    1.404   .     A
C707   C732    1.397   .     A
C707   C716    1.441   .     S
C708   C730    1.404   .     A
C709   N754    1.359   .     A
C709   O759    1.382   .     S
C710   N753    1.359   .     A
C710   O760    1.382   .     S
C710   C1288   1.439   .     S
C711   N753    1.390   .     A
C711   C713    1.479   .     S
C711   C1285   1.439   .     S
C712   N754    1.390   .     A
C712   C720    1.479   .     S
C713   C714    1.403   .     A
C713   C719    1.406   .     A
C714   H752    1.081   .     S
C714   C715    1.399   .     A
C715   C717    1.397   .     A
C716   O761    1.298   .     A
C716   O763    1.295   .     A
C717   H737    1.083   .     S
C717   C718    1.397   .     A
C718   H738    1.082   .     S
C718   C719    1.399   .     A
C719   H739    1.083   .     S
C720   C725    1.403   .     A
C720   C721    1.406   .     A
C721   H740    1.083   .     S
C721   C722    1.399   .     A
C722   H741    1.082   .     S
C722   C723    1.397   .     A
C723   C724    1.397   .     A
C723   H742    1.083   .     S
C724   C725    1.399   .     A
C724   H615    1.082   1_655 S
C725   H744    1.081   .     S
C726   O766    1.296   .     A
C726   O764    1.290   .     A
C726   C728    1.438   .     S
C727   O767    1.296   .     A
C727   C729    1.438   .     S
C727   O765    1.290   .     A
C729   C600    1.344   1_655 S
C729   O628    1.387   1_655 S
C730   O757    1.381   .     S
C730   C1116   1.394   1_545 S
C731   O758    1.381   .     S
C731   C898    1.394   .     S
C732   H735    1.084   .     S
C732   C922    1.394   .     S
Cu733  O767    1.957   .     S
Cu733  O764    1.966   .     S
Cu733  N753    2.032   .     S
Cu733  Cu734   2.704   .     S
Cu733  O755    1.952   .     S
Cu733  O763    1.950   .     S
Cu734  O762    1.950   .     S
Cu734  O766    1.957   .     S
Cu734  O761    1.952   .     S
Cu734  O765    1.966   .     S
Cu734  N754    2.032   .     S
H736   C587    1.082   1_655 S
H747   O628    0.991   1_655 S
H748   O757    0.992   .     S
H749   O758    0.992   .     S
H750   O759    0.986   .     S
H751   O760    0.986   .     S
O768   H618    0.991   1_655 S
O768   C600    1.387   1_655 S
C769   C772    1.441   .     S
C769   O826    1.295   .     A
C769   O819    1.298   .     A
C770   C772    1.397   .     A
C770   H809    1.084   .     S
C771   C795    1.404   .     A
C771   C796    1.397   .     A
C771   C780    1.441   .     S
C772   C794    1.404   .     A
C773   N818    1.359   .     A
C773   O823    1.382   .     S
C774   N817    1.359   .     A
C774   O824    1.382   .     S
C774   C1352   1.439   .     S
C775   N817    1.390   .     A
C775   C777    1.479   .     S
C775   C1349   1.439   .     S
C776   N818    1.390   .     A
C776   C784    1.479   .     S
C777   C778    1.403   .     A
C777   C783    1.406   .     A
C778   H816    1.081   .     S
C778   C779    1.399   .     A
C779   C781    1.397   .     A
C779   H928    1.082   1_455 S
C780   O825    1.298   .     A
C780   O827    1.295   .     A
C781   H801    1.083   .     S
C781   C782    1.397   .     A
C782   H802    1.082   .     S
C782   C783    1.399   .     A
C783   H803    1.083   .     S
C784   C789    1.403   .     A
C784   C785    1.406   .     A
C785   H804    1.083   .     S
C785   C786    1.399   .     A
C786   H805    1.082   .     S
C786   C787    1.397   .     A
C787   C788    1.397   .     A
C787   H806    1.083   .     S
C788   C789    1.399   .     A
C788   H871    1.082   .     S
C789   H808    1.081   .     S
C790   O830    1.296   .     A
C790   O828    1.290   .     A
C790   C792    1.438   .     S
C791   O831    1.296   .     A
C791   C793    1.438   .     S
C791   O829    1.290   .     A
C792   C921    1.344   1_455 S
C792   O960    1.387   1_455 S
C793   C856    1.344   .     S
C793   O884    1.387   .     S
C794   O821    1.381   .     S
C795   O822    1.381   .     S
C795   C962    1.394   .     S
C796   H799    1.084   .     S
C796   C986    1.394   .     S
Cu797  O831    1.957   .     S
Cu797  O828    1.966   .     S
Cu797  N817    2.032   .     S
Cu797  Cu798   2.704   .     S
Cu797  O819    1.952   .     S
Cu797  O827    1.950   .     S
Cu798  O826    1.950   .     S
Cu798  O830    1.957   .     S
Cu798  O825    1.952   .     S
Cu798  O829    1.966   .     S
Cu798  N818    2.032   .     S
H800   C843    1.082   .     S
H807   C916    1.082   1_455 S
H810   O960    0.991   1_455 S
H811   O884    0.991   .     S
H812   O821    0.992   .     S
H813   O822    0.992   .     S
H814   O823    0.986   .     S
H815   O824    0.986   .     S
O820   H939    0.991   1_455 S
O820   C921    1.387   1_455 S
O832   H874    0.991   .     S
O832   C856    1.387   .     S
C833   C836    1.441   .     S
C833   O890    1.295   .     A
C833   O883    1.298   .     A
C834   C836    1.397   .     A
C834   H873    1.084   .     S
C835   C859    1.404   .     A
C835   C860    1.397   .     A
C835   C844    1.441   .     S
C836   C858    1.404   .     A
C837   N882    1.359   .     A
C837   O887    1.382   .     S
C838   N881    1.359   .     A
C838   O888    1.382   .     S
C838   C1416   1.439   .     S
C839   N881    1.390   .     A
C839   C841    1.479   .     S
C839   C1413   1.439   .     S
C840   N882    1.390   .     A
C840   C848    1.479   .     S
C841   C842    1.403   .     A
C841   C847    1.406   .     A
C842   H880    1.081   .     S
C842   C843    1.399   .     A
C843   C845    1.397   .     A
C844   O889    1.298   .     A
C844   O891    1.295   .     A
C845   H865    1.083   .     S
C845   C846    1.397   .     A
C846   H866    1.082   .     S
C846   C847    1.399   .     A
C847   H867    1.083   .     S
C848   C853    1.403   .     A
C848   C849    1.406   .     A
C849   H868    1.083   .     S
C849   C850    1.399   .     A
C850   H869    1.082   .     S
C850   C851    1.397   .     A
C851   C852    1.397   .     A
C851   H870    1.083   .     S
C852   C853    1.399   .     A
C852   H935    1.082   .     S
C853   H872    1.081   .     S
C854   O894    1.296   .     A
C854   O892    1.290   .     A
C854   C856    1.438   .     S
C855   O895    1.296   .     A
C855   C857    1.438   .     S
C855   O893    1.290   .     A
C857   C920    1.344   .     S
C857   O948    1.387   .     S
C858   O885    1.381   .     S
C859   O886    1.381   .     S
C859   C1026   1.394   .     S
C860   H863    1.084   .     S
C860   C1050   1.394   .     S
Cu861  O895    1.957   .     S
Cu861  O892    1.966   .     S
Cu861  N881    2.032   .     S
Cu861  Cu862   2.704   .     S
Cu861  O883    1.952   .     S
Cu861  O891    1.950   .     S
Cu862  O890    1.950   .     S
Cu862  O894    1.957   .     S
Cu862  O889    1.952   .     S
Cu862  O893    1.966   .     S
Cu862  N882    2.032   .     S
H864   C907    1.082   .     S
H875   O948    0.991   .     S
H876   O885    0.992   .     S
H877   O886    0.992   .     S
H878   O887    0.986   .     S
H879   O888    0.986   .     S
O896   H938    0.991   .     S
O896   C920    1.387   .     S
C897   C900    1.441   .     S
C897   O954    1.295   .     A
C897   O947    1.298   .     A
C898   C900    1.397   .     A
C898   H937    1.084   .     S
C899   C923    1.404   .     A
C899   C924    1.397   .     A
C899   C908    1.441   .     S
C900   C922    1.404   .     A
C901   N946    1.359   .     A
C901   O951    1.382   .     S
C902   N945    1.359   .     A
C902   O952    1.382   .     S
C902   C1480   1.439   .     S
C903   N945    1.390   .     A
C903   C905    1.479   .     S
C903   C1477   1.439   .     S
C904   N946    1.390   .     A
C904   C912    1.479   .     S
C905   C906    1.403   .     A
C905   C911    1.406   .     A
C906   H944    1.081   .     S
C906   C907    1.399   .     A
C907   C909    1.397   .     A
C908   O953    1.298   .     A
C908   O955    1.295   .     A
C909   H929    1.083   .     S
C909   C910    1.397   .     A
C910   H930    1.082   .     S
C910   C911    1.399   .     A
C911   H931    1.083   .     S
C912   C917    1.403   .     A
C912   C913    1.406   .     A
C913   H932    1.083   .     S
C913   C914    1.399   .     A
C914   H933    1.082   .     S
C914   C915    1.397   .     A
C915   C916    1.397   .     A
C915   H934    1.083   .     S
C916   C917    1.399   .     A
C916   H807    1.082   1_655 S
C917   H936    1.081   .     S
C918   O958    1.296   .     A
C918   O956    1.290   .     A
C918   C920    1.438   .     S
C919   O959    1.296   .     A
C919   C921    1.438   .     S
C919   O957    1.290   .     A
C921   C792    1.344   1_655 S
C921   O820    1.387   1_655 S
C922   O949    1.381   .     S
C923   O950    1.381   .     S
C923   C1090   1.394   .     S
C924   H927    1.084   .     S
C924   C1114   1.394   .     S
Cu925  O959    1.957   .     S
Cu925  O956    1.966   .     S
Cu925  N945    2.032   .     S
Cu925  Cu926   2.704   .     S
Cu925  O947    1.952   .     S
Cu925  O955    1.950   .     S
Cu926  O954    1.950   .     S
Cu926  O958    1.957   .     S
Cu926  O953    1.952   .     S
Cu926  O957    1.966   .     S
Cu926  N946    2.032   .     S
H928   C779    1.082   1_655 S
H939   O820    0.991   1_655 S
H940   O949    0.992   .     S
H941   O950    0.992   .     S
H942   O951    0.986   .     S
H943   O952    0.986   .     S
O960   H810    0.991   1_655 S
O960   C792    1.387   1_655 S
C961   C964    1.441   .     S
C961   O1018   1.295   .     A
C961   O1011   1.298   .     A
C962   C964    1.397   .     A
C962   H1001   1.084   .     S
C963   C987    1.404   .     A
C963   C988    1.397   .     A
C963   C972    1.441   .     S
C964   C986    1.404   .     A
C965   N1010   1.359   .     A
C965   O1015   1.382   .     S
C966   N1009   1.359   .     A
C966   O1016   1.382   .     S
C966   C1544   1.439   .     S
C967   N1009   1.390   .     A
C967   C969    1.479   .     S
C967   C1541   1.439   .     S
C968   N1010   1.390   .     A
C968   C976    1.479   .     S
C969   C970    1.403   .     A
C969   C975    1.406   .     A
C970   H1008   1.081   .     S
C970   C971    1.399   .     A
C971   C973    1.397   .     A
C971   H1120   1.082   1_455 S
C972   O1017   1.298   .     A
C972   O1019   1.295   .     A
C973   H993    1.083   .     S
C973   C974    1.397   .     A
C974   H994    1.082   .     S
C974   C975    1.399   .     A
C975   H995    1.083   .     S
C976   C981    1.403   .     A
C976   C977    1.406   .     A
C977   H996    1.083   .     S
C977   C978    1.399   .     A
C978   H997    1.082   .     S
C978   C979    1.397   .     A
C979   C980    1.397   .     A
C979   H998    1.083   .     S
C980   C981    1.399   .     A
C980   H1063   1.082   .     S
C981   H1000   1.081   .     S
C982   O1022   1.296   .     A
C982   O1020   1.290   .     A
C982   C984    1.438   .     S
C983   O1023   1.296   .     A
C983   C985    1.438   .     S
C983   O1021   1.290   .     A
C984   C1113   1.344   1_455 S
C984   O1152   1.387   1_455 S
C985   C1048   1.344   .     S
C985   O1076   1.387   .     S
C986   O1013   1.381   .     S
C987   O1014   1.381   .     S
C987   C578    1.394   1_565 S
C988   H991    1.084   .     S
C988   C602    1.394   1_565 S
Cu989  O1023   1.957   .     S
Cu989  O1020   1.966   .     S
Cu989  N1009   2.032   .     S
Cu989  Cu990   2.704   .     S
Cu989  O1011   1.952   .     S
Cu989  O1019   1.950   .     S
Cu990  O1018   1.950   .     S
Cu990  O1022   1.957   .     S
Cu990  O1017   1.952   .     S
Cu990  O1021   1.966   .     S
Cu990  N1010   2.032   .     S
H992   C1035   1.082   .     S
H999   C1108   1.082   1_455 S
H1002  O1152   0.991   1_455 S
H1003  O1076   0.991   .     S
H1004  O1013   0.992   .     S
H1005  O1014   0.992   .     S
H1006  O1015   0.986   .     S
H1007  O1016   0.986   .     S
O1012  H1131   0.991   1_455 S
O1012  C1113   1.387   1_455 S
O1024  H1066   0.991   .     S
O1024  C1048   1.387   .     S
C1025  C1028   1.441   .     S
C1025  O1082   1.295   .     A
C1025  O1075   1.298   .     A
C1026  C1028   1.397   .     A
C1026  H1065   1.084   .     S
C1027  C1051   1.404   .     A
C1027  C1052   1.397   .     A
C1027  C1036   1.441   .     S
C1028  C1050   1.404   .     A
C1029  N1074   1.359   .     A
C1029  O1079   1.382   .     S
C1030  N1073   1.359   .     A
C1030  O1080   1.382   .     S
C1030  C1608   1.439   .     S
C1031  N1073   1.390   .     A
C1031  C1033   1.479   .     S
C1031  C1605   1.439   .     S
C1032  N1074   1.390   .     A
C1032  C1040   1.479   .     S
C1033  C1034   1.403   .     A
C1033  C1039   1.406   .     A
C1034  H1072   1.081   .     S
C1034  C1035   1.399   .     A
C1035  C1037   1.397   .     A
C1036  O1081   1.298   .     A
C1036  O1083   1.295   .     A
C1037  H1057   1.083   .     S
C1037  C1038   1.397   .     A
C1038  H1058   1.082   .     S
C1038  C1039   1.399   .     A
C1039  H1059   1.083   .     S
C1040  C1045   1.403   .     A
C1040  C1041   1.406   .     A
C1041  H1060   1.083   .     S
C1041  C1042   1.399   .     A
C1042  H1061   1.082   .     S
C1042  C1043   1.397   .     A
C1043  C1044   1.397   .     A
C1043  H1062   1.083   .     S
C1044  C1045   1.399   .     A
C1044  H1127   1.082   .     S
C1045  H1064   1.081   .     S
C1046  O1086   1.296   .     A
C1046  O1084   1.290   .     A
C1046  C1048   1.438   .     S
C1047  O1087   1.296   .     A
C1047  C1049   1.438   .     S
C1047  O1085   1.290   .     A
C1049  C1112   1.344   .     S
C1049  O1140   1.387   .     S
C1050  O1077   1.381   .     S
C1051  O1078   1.381   .     S
C1051  C642    1.394   1_565 S
C1052  H1055   1.084   .     S
C1052  C666    1.394   1_565 S
Cu1053 O1087   1.957   .     S
Cu1053 O1084   1.966   .     S
Cu1053 N1073   2.032   .     S
Cu1053 Cu1054  2.704   .     S
Cu1053 O1075   1.952   .     S
Cu1053 O1083   1.950   .     S
Cu1054 O1082   1.950   .     S
Cu1054 O1086   1.957   .     S
Cu1054 O1081   1.952   .     S
Cu1054 O1085   1.966   .     S
Cu1054 N1074   2.032   .     S
H1056  C1099   1.082   .     S
H1067  O1140   0.991   .     S
H1068  O1077   0.992   .     S
H1069  O1078   0.992   .     S
H1070  O1079   0.986   .     S
H1071  O1080   0.986   .     S
O1088  H1130   0.991   .     S
O1088  C1112   1.387   .     S
C1089  C1092   1.441   .     S
C1089  O1146   1.295   .     A
C1089  O1139   1.298   .     A
C1090  C1092   1.397   .     A
C1090  H1129   1.084   .     S
C1091  C1115   1.404   .     A
C1091  C1116   1.397   .     A
C1091  C1100   1.441   .     S
C1092  C1114   1.404   .     A
C1093  N1138   1.359   .     A
C1093  O1143   1.382   .     S
C1094  N1137   1.359   .     A
C1094  O1144   1.382   .     S
C1094  C1672   1.439   .     S
C1095  N1137   1.390   .     A
C1095  C1097   1.479   .     S
C1095  C1669   1.439   .     S
C1096  N1138   1.390   .     A
C1096  C1104   1.479   .     S
C1097  C1098   1.403   .     A
C1097  C1103   1.406   .     A
C1098  H1136   1.081   .     S
C1098  C1099   1.399   .     A
C1099  C1101   1.397   .     A
C1100  O1145   1.298   .     A
C1100  O1147   1.295   .     A
C1101  H1121   1.083   .     S
C1101  C1102   1.397   .     A
C1102  H1122   1.082   .     S
C1102  C1103   1.399   .     A
C1103  H1123   1.083   .     S
C1104  C1109   1.403   .     A
C1104  C1105   1.406   .     A
C1105  H1124   1.083   .     S
C1105  C1106   1.399   .     A
C1106  H1125   1.082   .     S
C1106  C1107   1.397   .     A
C1107  C1108   1.397   .     A
C1107  H1126   1.083   .     S
C1108  C1109   1.399   .     A
C1108  H999    1.082   1_655 S
C1109  H1128   1.081   .     S
C1110  O1150   1.296   .     A
C1110  O1148   1.290   .     A
C1110  C1112   1.438   .     S
C1111  O1151   1.296   .     A
C1111  C1113   1.438   .     S
C1111  O1149   1.290   .     A
C1113  C984    1.344   1_655 S
C1113  O1012   1.387   1_655 S
C1114  O1141   1.381   .     S
C1115  O1142   1.381   .     S
C1115  C706    1.394   1_565 S
C1116  H1119   1.084   .     S
C1116  C730    1.394   1_565 S
Cu1117 O1151   1.957   .     S
Cu1117 O1148   1.966   .     S
Cu1117 N1137   2.032   .     S
Cu1117 Cu1118  2.704   .     S
Cu1117 O1139   1.952   .     S
Cu1117 O1147   1.950   .     S
Cu1118 O1146   1.950   .     S
Cu1118 O1150   1.957   .     S
Cu1118 O1145   1.952   .     S
Cu1118 O1149   1.966   .     S
Cu1118 N1138   2.032   .     S
H1120  C971    1.082   1_655 S
H1131  O1012   0.991   1_655 S
H1132  O1141   0.992   .     S
H1133  O1142   0.992   .     S
H1134  O1143   0.986   .     S
H1135  O1144   0.986   .     S
O1152  H1002   0.991   1_655 S
O1152  C984    1.387   1_655 S
C1153  C1156   1.441   .     S
C1153  O1210   1.295   .     A
C1153  O1203   1.298   .     A
C1154  C1156   1.397   .     A
C1154  H1193   1.084   .     S
C1154  C1563   1.394   1_545 S
C1155  C1179   1.404   .     A
C1155  C1180   1.397   .     A
C1155  C1164   1.441   .     S
C1156  C1178   1.404   .     A
C1157  N1202   1.359   .     A
C1157  O1207   1.382   .     S
C1158  N1201   1.359   .     A
C1158  O1208   1.382   .     S
C1158  C8      1.439   1_556 S
C1159  N1201   1.390   .     A
C1159  C1161   1.479   .     S
C1159  C5      1.439   1_556 S
C1160  N1202   1.390   .     A
C1160  C1168   1.479   .     S
C1161  C1162   1.403   .     A
C1161  C1167   1.406   .     A
C1162  H1200   1.081   .     S
C1162  C1163   1.399   .     A
C1163  C1165   1.397   .     A
C1163  H1312   1.082   1_455 S
C1164  O1209   1.298   .     A
C1164  O1211   1.295   .     A
C1165  H1185   1.083   .     S
C1165  C1166   1.397   .     A
C1166  H1186   1.082   .     S
C1166  C1167   1.399   .     A
C1167  H1187   1.083   .     S
C1168  C1173   1.403   .     A
C1168  C1169   1.406   .     A
C1169  H1188   1.083   .     S
C1169  C1170   1.399   .     A
C1170  H1189   1.082   .     S
C1170  C1171   1.397   .     A
C1171  C1172   1.397   .     A
C1171  H1190   1.083   .     S
C1172  C1173   1.399   .     A
C1172  H1255   1.082   .     S
C1173  H1192   1.081   .     S
C1174  O1214   1.296   .     A
C1174  O1212   1.290   .     A
C1174  C1176   1.438   .     S
C1175  O1215   1.296   .     A
C1175  C1177   1.438   .     S
C1175  O1213   1.290   .     A
C1176  C1305   1.344   1_455 S
C1176  O1344   1.387   1_455 S
C1177  C1240   1.344   .     S
C1177  O1268   1.387   .     S
C1178  O1205   1.381   .     S
C1178  C1564   1.394   1_545 S
C1179  O1206   1.381   .     S
C1179  C1346   1.394   .     S
C1180  H1183   1.084   .     S
C1180  C1370   1.394   .     S
Cu1181 O1215   1.957   .     S
Cu1181 O1212   1.966   .     S
Cu1181 N1201   2.032   .     S
Cu1181 Cu1182  2.704   .     S
Cu1181 O1203   1.952   .     S
Cu1181 O1211   1.950   .     S
Cu1182 O1210   1.950   .     S
Cu1182 O1214   1.957   .     S
Cu1182 O1209   1.952   .     S
Cu1182 O1213   1.966   .     S
Cu1182 N1202   2.032   .     S
H1184  C1227   1.082   .     S
H1191  C1300   1.082   1_455 S
H1194  O1344   0.991   1_455 S
H1195  O1268   0.991   .     S
H1196  O1205   0.992   .     S
H1197  O1206   0.992   .     S
H1198  O1207   0.986   .     S
H1199  O1208   0.986   .     S
O1204  H1323   0.991   1_455 S
O1204  C1305   1.387   1_455 S
O1216  H1258   0.991   .     S
O1216  C1240   1.387   .     S
C1217  C1220   1.441   .     S
C1217  O1274   1.295   .     A
C1217  O1267   1.298   .     A
C1218  C1220   1.397   .     A
C1218  H1257   1.084   .     S
C1218  C1627   1.394   1_545 S
C1219  C1243   1.404   .     A
C1219  C1244   1.397   .     A
C1219  C1228   1.441   .     S
C1220  C1242   1.404   .     A
C1221  N1266   1.359   .     A
C1221  O1271   1.382   .     S
C1222  N1265   1.359   .     A
C1222  O1272   1.382   .     S
C1222  C72     1.439   1_556 S
C1223  N1265   1.390   .     A
C1223  C1225   1.479   .     S
C1223  C69     1.439   1_556 S
C1224  N1266   1.390   .     A
C1224  C1232   1.479   .     S
C1225  C1226   1.403   .     A
C1225  C1231   1.406   .     A
C1226  H1264   1.081   .     S
C1226  C1227   1.399   .     A
C1227  C1229   1.397   .     A
C1228  O1273   1.298   .     A
C1228  O1275   1.295   .     A
C1229  H1249   1.083   .     S
C1229  C1230   1.397   .     A
C1230  H1250   1.082   .     S
C1230  C1231   1.399   .     A
C1231  H1251   1.083   .     S
C1232  C1237   1.403   .     A
C1232  C1233   1.406   .     A
C1233  H1252   1.083   .     S
C1233  C1234   1.399   .     A
C1234  H1253   1.082   .     S
C1234  C1235   1.397   .     A
C1235  C1236   1.397   .     A
C1235  H1254   1.083   .     S
C1236  C1237   1.399   .     A
C1236  H1319   1.082   .     S
C1237  H1256   1.081   .     S
C1238  O1278   1.296   .     A
C1238  O1276   1.290   .     A
C1238  C1240   1.438   .     S
C1239  O1279   1.296   .     A
C1239  C1241   1.438   .     S
C1239  O1277   1.290   .     A
C1241  C1304   1.344   .     S
C1241  O1332   1.387   .     S
C1242  O1269   1.381   .     S
C1242  C1628   1.394   1_545 S
C1243  O1270   1.381   .     S
C1243  C1410   1.394   .     S
C1244  H1247   1.084   .     S
C1244  C1434   1.394   .     S
Cu1245 O1279   1.957   .     S
Cu1245 O1276   1.966   .     S
Cu1245 N1265   2.032   .     S
Cu1245 Cu1246  2.704   .     S
Cu1245 O1267   1.952   .     S
Cu1245 O1275   1.950   .     S
Cu1246 O1274   1.950   .     S
Cu1246 O1278   1.957   .     S
Cu1246 O1273   1.952   .     S
Cu1246 O1277   1.966   .     S
Cu1246 N1266   2.032   .     S
H1248  C1291   1.082   .     S
H1259  O1332   0.991   .     S
H1260  O1269   0.992   .     S
H1261  O1270   0.992   .     S
H1262  O1271   0.986   .     S
H1263  O1272   0.986   .     S
O1280  H1322   0.991   .     S
O1280  C1304   1.387   .     S
C1281  C1284   1.441   .     S
C1281  O1338   1.295   .     A
C1281  O1331   1.298   .     A
C1282  C1284   1.397   .     A
C1282  H1321   1.084   .     S
C1282  C1691   1.394   1_545 S
C1283  C1307   1.404   .     A
C1283  C1308   1.397   .     A
C1283  C1292   1.441   .     S
C1284  C1306   1.404   .     A
C1285  N1330   1.359   .     A
C1285  O1335   1.382   .     S
C1286  N1329   1.359   .     A
C1286  O1336   1.382   .     S
C1286  C136    1.439   1_556 S
C1287  N1329   1.390   .     A
C1287  C1289   1.479   .     S
C1287  C133    1.439   1_556 S
C1288  N1330   1.390   .     A
C1288  C1296   1.479   .     S
C1289  C1290   1.403   .     A
C1289  C1295   1.406   .     A
C1290  H1328   1.081   .     S
C1290  C1291   1.399   .     A
C1291  C1293   1.397   .     A
C1292  O1337   1.298   .     A
C1292  O1339   1.295   .     A
C1293  H1313   1.083   .     S
C1293  C1294   1.397   .     A
C1294  H1314   1.082   .     S
C1294  C1295   1.399   .     A
C1295  H1315   1.083   .     S
C1296  C1301   1.403   .     A
C1296  C1297   1.406   .     A
C1297  H1316   1.083   .     S
C1297  C1298   1.399   .     A
C1298  H1317   1.082   .     S
C1298  C1299   1.397   .     A
C1299  C1300   1.397   .     A
C1299  H1318   1.083   .     S
C1300  C1301   1.399   .     A
C1300  H1191   1.082   1_655 S
C1301  H1320   1.081   .     S
C1302  O1342   1.296   .     A
C1302  O1340   1.290   .     A
C1302  C1304   1.438   .     S
C1303  O1343   1.296   .     A
C1303  C1305   1.438   .     S
C1303  O1341   1.290   .     A
C1305  C1176   1.344   1_655 S
C1305  O1204   1.387   1_655 S
C1306  O1333   1.381   .     S
C1306  C1692   1.394   1_545 S
C1307  O1334   1.381   .     S
C1307  C1474   1.394   .     S
C1308  H1311   1.084   .     S
C1308  C1498   1.394   .     S
Cu1309 O1343   1.957   .     S
Cu1309 O1340   1.966   .     S
Cu1309 N1329   2.032   .     S
Cu1309 Cu1310  2.704   .     S
Cu1309 O1331   1.952   .     S
Cu1309 O1339   1.950   .     S
Cu1310 O1338   1.950   .     S
Cu1310 O1342   1.957   .     S
Cu1310 O1337   1.952   .     S
Cu1310 O1341   1.966   .     S
Cu1310 N1330   2.032   .     S
H1312  C1163   1.082   1_655 S
H1323  O1204   0.991   1_655 S
H1324  O1333   0.992   .     S
H1325  O1334   0.992   .     S
H1326  O1335   0.986   .     S
H1327  O1336   0.986   .     S
O1344  H1194   0.991   1_655 S
O1344  C1176   1.387   1_655 S
C1345  C1348   1.441   .     S
C1345  O1402   1.295   .     A
C1345  O1395   1.298   .     A
C1346  C1348   1.397   .     A
C1346  H1385   1.084   .     S
C1347  C1371   1.404   .     A
C1347  C1372   1.397   .     A
C1347  C1356   1.441   .     S
C1348  C1370   1.404   .     A
C1349  N1394   1.359   .     A
C1349  O1399   1.382   .     S
C1350  N1393   1.359   .     A
C1350  O1400   1.382   .     S
C1350  C200    1.439   1_556 S
C1351  N1393   1.390   .     A
C1351  C1353   1.479   .     S
C1351  C197    1.439   1_556 S
C1352  N1394   1.390   .     A
C1352  C1360   1.479   .     S
C1353  C1354   1.403   .     A
C1353  C1359   1.406   .     A
C1354  H1392   1.081   .     S
C1354  C1355   1.399   .     A
C1355  C1357   1.397   .     A
C1355  H1504   1.082   1_455 S
C1356  O1401   1.298   .     A
C1356  O1403   1.295   .     A
C1357  H1377   1.083   .     S
C1357  C1358   1.397   .     A
C1358  H1378   1.082   .     S
C1358  C1359   1.399   .     A
C1359  H1379   1.083   .     S
C1360  C1365   1.403   .     A
C1360  C1361   1.406   .     A
C1361  H1380   1.083   .     S
C1361  C1362   1.399   .     A
C1362  H1381   1.082   .     S
C1362  C1363   1.397   .     A
C1363  C1364   1.397   .     A
C1363  H1382   1.083   .     S
C1364  C1365   1.399   .     A
C1364  H1447   1.082   .     S
C1365  H1384   1.081   .     S
C1366  O1406   1.296   .     A
C1366  O1404   1.290   .     A
C1366  C1368   1.438   .     S
C1367  O1407   1.296   .     A
C1367  C1369   1.438   .     S
C1367  O1405   1.290   .     A
C1368  C1497   1.344   1_455 S
C1368  O1536   1.387   1_455 S
C1369  C1432   1.344   .     S
C1369  O1460   1.387   .     S
C1370  O1397   1.381   .     S
C1371  O1398   1.381   .     S
C1371  C1538   1.394   .     S
C1372  H1375   1.084   .     S
C1372  C1562   1.394   .     S
Cu1373 O1407   1.957   .     S
Cu1373 O1404   1.966   .     S
Cu1373 N1393   2.032   .     S
Cu1373 Cu1374  2.704   .     S
Cu1373 O1395   1.952   .     S
Cu1373 O1403   1.950   .     S
Cu1374 O1402   1.950   .     S
Cu1374 O1406   1.957   .     S
Cu1374 O1401   1.952   .     S
Cu1374 O1405   1.966   .     S
Cu1374 N1394   2.032   .     S
H1376  C1419   1.082   .     S
H1383  C1492   1.082   1_455 S
H1386  O1536   0.991   1_455 S
H1387  O1460   0.991   .     S
H1388  O1397   0.992   .     S
H1389  O1398   0.992   .     S
H1390  O1399   0.986   .     S
H1391  O1400   0.986   .     S
O1396  H1515   0.991   1_455 S
O1396  C1497   1.387   1_455 S
O1408  H1450   0.991   .     S
O1408  C1432   1.387   .     S
C1409  C1412   1.441   .     S
C1409  O1466   1.295   .     A
C1409  O1459   1.298   .     A
C1410  C1412   1.397   .     A
C1410  H1449   1.084   .     S
C1411  C1435   1.404   .     A
C1411  C1436   1.397   .     A
C1411  C1420   1.441   .     S
C1412  C1434   1.404   .     A
C1413  N1458   1.359   .     A
C1413  O1463   1.382   .     S
C1414  N1457   1.359   .     A
C1414  O1464   1.382   .     S
C1414  C264    1.439   1_556 S
C1415  N1457   1.390   .     A
C1415  C1417   1.479   .     S
C1415  C261    1.439   1_556 S
C1416  N1458   1.390   .     A
C1416  C1424   1.479   .     S
C1417  C1418   1.403   .     A
C1417  C1423   1.406   .     A
C1418  H1456   1.081   .     S
C1418  C1419   1.399   .     A
C1419  C1421   1.397   .     A
C1420  O1465   1.298   .     A
C1420  O1467   1.295   .     A
C1421  H1441   1.083   .     S
C1421  C1422   1.397   .     A
C1422  H1442   1.082   .     S
C1422  C1423   1.399   .     A
C1423  H1443   1.083   .     S
C1424  C1429   1.403   .     A
C1424  C1425   1.406   .     A
C1425  H1444   1.083   .     S
C1425  C1426   1.399   .     A
C1426  H1445   1.082   .     S
C1426  C1427   1.397   .     A
C1427  C1428   1.397   .     A
C1427  H1446   1.083   .     S
C1428  C1429   1.399   .     A
C1428  H1511   1.082   .     S
C1429  H1448   1.081   .     S
C1430  O1470   1.296   .     A
C1430  O1468   1.290   .     A
C1430  C1432   1.438   .     S
C1431  O1471   1.296   .     A
C1431  C1433   1.438   .     S
C1431  O1469   1.290   .     A
C1433  C1496   1.344   .     S
C1433  O1524   1.387   .     S
C1434  O1461   1.381   .     S
C1435  O1462   1.381   .     S
C1435  C1602   1.394   .     S
C1436  H1439   1.084   .     S
C1436  C1626   1.394   .     S
Cu1437 O1471   1.957   .     S
Cu1437 O1468   1.966   .     S
Cu1437 N1457   2.032   .     S
Cu1437 Cu1438  2.704   .     S
Cu1437 O1459   1.952   .     S
Cu1437 O1467   1.950   .     S
Cu1438 O1466   1.950   .     S
Cu1438 O1470   1.957   .     S
Cu1438 O1465   1.952   .     S
Cu1438 O1469   1.966   .     S
Cu1438 N1458   2.032   .     S
H1440  C1483   1.082   .     S
H1451  O1524   0.991   .     S
H1452  O1461   0.992   .     S
H1453  O1462   0.992   .     S
H1454  O1463   0.986   .     S
H1455  O1464   0.986   .     S
O1472  H1514   0.991   .     S
O1472  C1496   1.387   .     S
C1473  C1476   1.441   .     S
C1473  O1530   1.295   .     A
C1473  O1523   1.298   .     A
C1474  C1476   1.397   .     A
C1474  H1513   1.084   .     S
C1475  C1499   1.404   .     A
C1475  C1500   1.397   .     A
C1475  C1484   1.441   .     S
C1476  C1498   1.404   .     A
C1477  N1522   1.359   .     A
C1477  O1527   1.382   .     S
C1478  N1521   1.359   .     A
C1478  O1528   1.382   .     S
C1478  C328    1.439   1_556 S
C1479  N1521   1.390   .     A
C1479  C1481   1.479   .     S
C1479  C325    1.439   1_556 S
C1480  N1522   1.390   .     A
C1480  C1488   1.479   .     S
C1481  C1482   1.403   .     A
C1481  C1487   1.406   .     A
C1482  H1520   1.081   .     S
C1482  C1483   1.399   .     A
C1483  C1485   1.397   .     A
C1484  O1529   1.298   .     A
C1484  O1531   1.295   .     A
C1485  H1505   1.083   .     S
C1485  C1486   1.397   .     A
C1486  H1506   1.082   .     S
C1486  C1487   1.399   .     A
C1487  H1507   1.083   .     S
C1488  C1493   1.403   .     A
C1488  C1489   1.406   .     A
C1489  H1508   1.083   .     S
C1489  C1490   1.399   .     A
C1490  H1509   1.082   .     S
C1490  C1491   1.397   .     A
C1491  C1492   1.397   .     A
C1491  H1510   1.083   .     S
C1492  C1493   1.399   .     A
C1492  H1383   1.082   1_655 S
C1493  H1512   1.081   .     S
C1494  O1534   1.296   .     A
C1494  O1532   1.290   .     A
C1494  C1496   1.438   .     S
C1495  O1535   1.296   .     A
C1495  C1497   1.438   .     S
C1495  O1533   1.290   .     A
C1497  C1368   1.344   1_655 S
C1497  O1396   1.387   1_655 S
C1498  O1525   1.381   .     S
C1499  O1526   1.381   .     S
C1499  C1666   1.394   .     S
C1500  H1503   1.084   .     S
C1500  C1690   1.394   .     S
Cu1501 O1535   1.957   .     S
Cu1501 O1532   1.966   .     S
Cu1501 N1521   2.032   .     S
Cu1501 Cu1502  2.704   .     S
Cu1501 O1523   1.952   .     S
Cu1501 O1531   1.950   .     S
Cu1502 O1530   1.950   .     S
Cu1502 O1534   1.957   .     S
Cu1502 O1529   1.952   .     S
Cu1502 O1533   1.966   .     S
Cu1502 N1522   2.032   .     S
H1504  C1355   1.082   1_655 S
H1515  O1396   0.991   1_655 S
H1516  O1525   0.992   .     S
H1517  O1526   0.992   .     S
H1518  O1527   0.986   .     S
H1519  O1528   0.986   .     S
O1536  H1386   0.991   1_655 S
O1536  C1368   1.387   1_655 S
C1537  C1540   1.441   .     S
C1537  O1594   1.295   .     A
C1537  O1587   1.298   .     A
C1538  C1540   1.397   .     A
C1538  H1577   1.084   .     S
C1539  C1563   1.404   .     A
C1539  C1564   1.397   .     A
C1539  C1548   1.441   .     S
C1540  C1562   1.404   .     A
C1541  N1586   1.359   .     A
C1541  O1591   1.382   .     S
C1542  N1585   1.359   .     A
C1542  O1592   1.382   .     S
C1542  C392    1.439   1_556 S
C1543  N1585   1.390   .     A
C1543  C1545   1.479   .     S
C1543  C389    1.439   1_556 S
C1544  N1586   1.390   .     A
C1544  C1552   1.479   .     S
C1545  C1546   1.403   .     A
C1545  C1551   1.406   .     A
C1546  H1584   1.081   .     S
C1546  C1547   1.399   .     A
C1547  C1549   1.397   .     A
C1547  H1696   1.082   1_455 S
C1548  O1593   1.298   .     A
C1548  O1595   1.295   .     A
C1549  H1569   1.083   .     S
C1549  C1550   1.397   .     A
C1550  H1570   1.082   .     S
C1550  C1551   1.399   .     A
C1551  H1571   1.083   .     S
C1552  C1557   1.403   .     A
C1552  C1553   1.406   .     A
C1553  H1572   1.083   .     S
C1553  C1554   1.399   .     A
C1554  H1573   1.082   .     S
C1554  C1555   1.397   .     A
C1555  C1556   1.397   .     A
C1555  H1574   1.083   .     S
C1556  C1557   1.399   .     A
C1556  H1639   1.082   .     S
C1557  H1576   1.081   .     S
C1558  O1598   1.296   .     A
C1558  O1596   1.290   .     A
C1558  C1560   1.438   .     S
C1559  O1599   1.296   .     A
C1559  C1561   1.438   .     S
C1559  O1597   1.290   .     A
C1560  C1689   1.344   1_455 S
C1560  O1728   1.387   1_455 S
C1561  C1624   1.344   .     S
C1561  O1652   1.387   .     S
C1562  O1589   1.381   .     S
C1563  O1590   1.381   .     S
C1563  C1154   1.394   1_565 S
C1564  H1567   1.084   .     S
C1564  C1178   1.394   1_565 S
Cu1565 O1599   1.957   .     S
Cu1565 O1596   1.966   .     S
Cu1565 N1585   2.032   .     S
Cu1565 Cu1566  2.704   .     S
Cu1565 O1587   1.952   .     S
Cu1565 O1595   1.950   .     S
Cu1566 O1594   1.950   .     S
Cu1566 O1598   1.957   .     S
Cu1566 O1593   1.952   .     S
Cu1566 O1597   1.966   .     S
Cu1566 N1586   2.032   .     S
H1568  C1611   1.082   .     S
H1575  C1684   1.082   1_455 S
H1578  O1728   0.991   1_455 S
H1579  O1652   0.991   .     S
H1580  O1589   0.992   .     S
H1581  O1590   0.992   .     S
H1582  O1591   0.986   .     S
H1583  O1592   0.986   .     S
O1588  H1707   0.991   1_455 S
O1588  C1689   1.387   1_455 S
O1600  H1642   0.991   .     S
O1600  C1624   1.387   .     S
C1601  C1604   1.441   .     S
C1601  O1658   1.295   .     A
C1601  O1651   1.298   .     A
C1602  C1604   1.397   .     A
C1602  H1641   1.084   .     S
C1603  C1627   1.404   .     A
C1603  C1628   1.397   .     A
C1603  C1612   1.441   .     S
C1604  C1626   1.404   .     A
C1605  N1650   1.359   .     A
C1605  O1655   1.382   .     S
C1606  N1649   1.359   .     A
C1606  O1656   1.382   .     S
C1606  C456    1.439   1_556 S
C1607  N1649   1.390   .     A
C1607  C1609   1.479   .     S
C1607  C453    1.439   1_556 S
C1608  N1650   1.390   .     A
C1608  C1616   1.479   .     S
C1609  C1610   1.403   .     A
C1609  C1615   1.406   .     A
C1610  H1648   1.081   .     S
C1610  C1611   1.399   .     A
C1611  C1613   1.397   .     A
C1612  O1657   1.298   .     A
C1612  O1659   1.295   .     A
C1613  H1633   1.083   .     S
C1613  C1614   1.397   .     A
C1614  H1634   1.082   .     S
C1614  C1615   1.399   .     A
C1615  H1635   1.083   .     S
C1616  C1621   1.403   .     A
C1616  C1617   1.406   .     A
C1617  H1636   1.083   .     S
C1617  C1618   1.399   .     A
C1618  H1637   1.082   .     S
C1618  C1619   1.397   .     A
C1619  C1620   1.397   .     A
C1619  H1638   1.083   .     S
C1620  C1621   1.399   .     A
C1620  H1703   1.082   .     S
C1621  H1640   1.081   .     S
C1622  O1662   1.296   .     A
C1622  O1660   1.290   .     A
C1622  C1624   1.438   .     S
C1623  O1663   1.296   .     A
C1623  C1625   1.438   .     S
C1623  O1661   1.290   .     A
C1625  C1688   1.344   .     S
C1625  O1716   1.387   .     S
C1626  O1653   1.381   .     S
C1627  O1654   1.381   .     S
C1627  C1218   1.394   1_565 S
C1628  H1631   1.084   .     S
C1628  C1242   1.394   1_565 S
Cu1629 O1663   1.957   .     S
Cu1629 O1660   1.966   .     S
Cu1629 N1649   2.032   .     S
Cu1629 Cu1630  2.704   .     S
Cu1629 O1651   1.952   .     S
Cu1629 O1659   1.950   .     S
Cu1630 O1658   1.950   .     S
Cu1630 O1662   1.957   .     S
Cu1630 O1657   1.952   .     S
Cu1630 O1661   1.966   .     S
Cu1630 N1650   2.032   .     S
H1632  C1675   1.082   .     S
H1643  O1716   0.991   .     S
H1644  O1653   0.992   .     S
H1645  O1654   0.992   .     S
H1646  O1655   0.986   .     S
H1647  O1656   0.986   .     S
O1664  H1706   0.991   .     S
O1664  C1688   1.387   .     S
C1665  C1668   1.441   .     S
C1665  O1722   1.295   .     A
C1665  O1715   1.298   .     A
C1666  C1668   1.397   .     A
C1666  H1705   1.084   .     S
C1667  C1691   1.404   .     A
C1667  C1692   1.397   .     A
C1667  C1676   1.441   .     S
C1668  C1690   1.404   .     A
C1669  N1714   1.359   .     A
C1669  O1719   1.382   .     S
C1670  N1713   1.359   .     A
C1670  O1720   1.382   .     S
C1670  C520    1.439   1_556 S
C1671  N1713   1.390   .     A
C1671  C1673   1.479   .     S
C1671  C517    1.439   1_556 S
C1672  N1714   1.390   .     A
C1672  C1680   1.479   .     S
C1673  C1674   1.403   .     A
C1673  C1679   1.406   .     A
C1674  H1712   1.081   .     S
C1674  C1675   1.399   .     A
C1675  C1677   1.397   .     A
C1676  O1721   1.298   .     A
C1676  O1723   1.295   .     A
C1677  H1697   1.083   .     S
C1677  C1678   1.397   .     A
C1678  H1698   1.082   .     S
C1678  C1679   1.399   .     A
C1679  H1699   1.083   .     S
C1680  C1685   1.403   .     A
C1680  C1681   1.406   .     A
C1681  H1700   1.083   .     S
C1681  C1682   1.399   .     A
C1682  H1701   1.082   .     S
C1682  C1683   1.397   .     A
C1683  C1684   1.397   .     A
C1683  H1702   1.083   .     S
C1684  C1685   1.399   .     A
C1684  H1575   1.082   1_655 S
C1685  H1704   1.081   .     S
C1686  O1726   1.296   .     A
C1686  O1724   1.290   .     A
C1686  C1688   1.438   .     S
C1687  O1727   1.296   .     A
C1687  C1689   1.438   .     S
C1687  O1725   1.290   .     A
C1689  C1560   1.344   1_655 S
C1689  O1588   1.387   1_655 S
C1690  O1717   1.381   .     S
C1691  O1718   1.381   .     S
C1691  C1282   1.394   1_565 S
C1692  H1695   1.084   .     S
C1692  C1306   1.394   1_565 S
Cu1693 O1727   1.957   .     S
Cu1693 O1724   1.966   .     S
Cu1693 N1713   2.032   .     S
Cu1693 Cu1694  2.704   .     S
Cu1693 O1715   1.952   .     S
Cu1693 O1723   1.950   .     S
Cu1694 O1722   1.950   .     S
Cu1694 O1726   1.957   .     S
Cu1694 O1721   1.952   .     S
Cu1694 O1725   1.966   .     S
Cu1694 N1714   2.032   .     S
H1696  C1547   1.082   1_655 S
H1707  O1588   0.991   1_655 S
H1708  O1717   0.992   .     S
H1709  O1718   0.992   .     S
H1710  O1719   0.986   .     S
H1711  O1720   0.986   .     S
O1728  H1578   0.991   1_655 S
O1728  C1560   1.387   1_655 S
