data_str_m2_o10_o17_pcu_sym.24
_audit_creation_date              2020-01-03
_audit_creation_method            'Materials Studio'
_symmetry_space_group_name_H-M    'P1'
_symmetry_Int_Tables_number       1
_symmetry_cell_setting            triclinic
loop_
_symmetry_equiv_pos_as_xyz
  x,y,z
_cell_length_a                    30.0643
_cell_length_b                    26.2970
_cell_length_c                    22.7263
_cell_angle_alpha                 102.4538
_cell_angle_beta                  94.5725
_cell_angle_gamma                 92.9505
loop_
_atom_site_label
_atom_site_type_symbol
_atom_site_fract_x
_atom_site_fract_y
_atom_site_fract_z
_atom_site_U_iso_or_equiv
_atom_site_adp_type
_atom_site_occupancy
O1     O     0.25326   0.09538   0.20659   0.00000  Uiso   1.00
O2     O     0.24675   0.23796   0.12674   0.00000  Uiso   1.00
O3     O     0.24480   0.08559   0.10279   0.00000  Uiso   1.00
O4     O     0.25520   0.24774   0.23055   0.00000  Uiso   1.00
C5     C     0.24943   0.06694   0.15140   0.00000  Uiso   1.00
C6     C     0.25158   0.26651   0.18201   0.00000  Uiso   1.00
O7     O     0.18936   0.17155   0.21857   0.00000  Uiso   1.00
O8     O     0.31065   0.16179   0.11476   0.00000  Uiso   1.00
O9     O     0.18090   0.16176   0.11477   0.00000  Uiso   1.00
O10    O     0.31910   0.17157   0.21857   0.00000  Uiso   1.00
C11    C     0.16454   0.16690   0.16761   0.00000  Uiso   1.00
C12    C     0.33535   0.16498   0.16579   0.00000  Uiso   1.00
Cu13   Cu    0.25501   0.17246   0.22813   0.00000  Uiso   1.00
Cu14   Cu    0.24500   0.16087   0.10521   0.00000  Uiso   1.00
C15    C     0.41047   0.20078   0.20896   0.00000  Uiso   1.00
C16    C     0.09037   0.11816   0.14471   0.00000  Uiso   1.00
C17    C     0.38398   0.16283   0.16582   0.00000  Uiso   1.00
C18    C     0.11578   0.16534   0.17122   0.00000  Uiso   1.00
C19    C     0.40385   0.11991   0.13062   0.00000  Uiso   1.00
C20    C     0.09666   0.20740   0.20904   0.00000  Uiso   1.00
C21    C     0.45014   0.11407   0.14398   0.00000  Uiso   1.00
C22    C     0.04993   0.20376   0.21515   0.00000  Uiso   1.00
C23    C     0.47684   0.15660   0.17977   0.00000  Uiso   1.00
C24    C     0.02399   0.15768   0.18244   0.00000  Uiso   1.00
C25    C     0.45647   0.19683   0.21613   0.00000  Uiso   1.00
C26    C     0.04421   0.11295   0.15269   0.00000  Uiso   1.00
C27    C     0.46976   0.06580   0.13165   0.00000  Uiso   1.00
C28    C     0.02697   0.24141   0.25523   0.00000  Uiso   1.00
C29    C     0.01707   0.06478   0.13612   0.00000  Uiso   1.00
C30    C     0.48262   0.23024   0.26255   0.00000  Uiso   1.00
C31    C     0.25033   0.01127   0.14319   0.00000  Uiso   1.00
C32    C     0.25236   0.32243   0.19061   0.00000  Uiso   1.00
H33    H     0.24933   0.32171   0.09734   0.00000  Uiso   1.00
H34    H     0.25431   0.01218   0.23666   0.00000  Uiso   1.00
N35    N     0.23745   0.15214   0.01284   0.00000  Uiso   1.00
N36    N     0.26256   0.18119   0.32049   0.00000  Uiso   1.00
I37    I     0.38291   0.27114   0.25353   0.00000  Uiso   1.00
I38    I     0.12471   0.05906   0.08894   0.00000  Uiso   1.00
C39    C     0.37794   0.08643   0.07386   0.00000  Uiso   1.00
C40    C     0.37824   0.11394   0.02094   0.00000  Uiso   1.00
C41    C     0.34555   0.08546   0.30125   0.00000  Uiso   1.00
H42    H     0.35029   0.04314   0.29077   0.00000  Uiso   1.00
H43    H     0.31061   0.09115   0.31220   0.00000  Uiso   1.00
H44    H     0.35156   0.10046   0.26046   0.00000  Uiso   1.00
H45    H     0.36963   0.15490   0.03498   0.00000  Uiso   1.00
H46    H     0.41249   0.11447   0.00574   0.00000  Uiso   1.00
H47    H     0.39316   0.04948   0.05723   0.00000  Uiso   1.00
H48    H     0.34339   0.07559   0.08309   0.00000  Uiso   1.00
C49    C     0.12768   0.25250   0.24616   0.00000  Uiso   1.00
C50    C     0.13732   0.24496   0.31117   0.00000  Uiso   1.00
C51    C     0.17800   0.27901   0.01067   0.00000  Uiso   1.00
H52    H     0.20888   0.26408   0.32529   0.00000  Uiso   1.00
H53    H     0.17590   0.31978   0.00556   0.00000  Uiso   1.00
H54    H     0.17968   0.27807   0.05936   0.00000  Uiso   1.00
H55    H     0.10809   0.25392   0.00401   0.00000  Uiso   1.00
H56    H     0.14365   0.20364   0.31068   0.00000  Uiso   1.00
H57    H     0.15962   0.25641   0.22592   0.00000  Uiso   1.00
H58    H     0.11495   0.29047   0.24396   0.00000  Uiso   1.00
I59    I     0.42883   0.33108   0.13672   0.00000  Uiso   1.00
I60    I     0.04334   0.32094   0.29997   0.00000  Uiso   1.00
I61    I     0.04366   0.32424   0.13931   0.00000  Uiso   1.00
I62    I     0.46830   0.22504   0.01779   0.00000  Uiso   1.00
I63    I     0.18904   0.09547   0.29928   0.00000  Uiso   1.00
I64    I     0.30942   0.23963   0.03410   0.00000  Uiso   1.00
O65    O     0.75326   0.09538   0.20659   0.00000  Uiso   1.00
O66    O     0.74675   0.23796   0.12674   0.00000  Uiso   1.00
O67    O     0.74480   0.08559   0.10279   0.00000  Uiso   1.00
O68    O     0.75520   0.24774   0.23055   0.00000  Uiso   1.00
C69    C     0.74943   0.06694   0.15140   0.00000  Uiso   1.00
C70    C     0.75158   0.26651   0.18201   0.00000  Uiso   1.00
O71    O     0.68936   0.17155   0.21857   0.00000  Uiso   1.00
O72    O     0.81065   0.16179   0.11476   0.00000  Uiso   1.00
O73    O     0.68090   0.16176   0.11477   0.00000  Uiso   1.00
O74    O     0.81910   0.17157   0.21857   0.00000  Uiso   1.00
C75    C     0.66454   0.16690   0.16761   0.00000  Uiso   1.00
C76    C     0.83535   0.16498   0.16579   0.00000  Uiso   1.00
Cu77   Cu    0.75501   0.17246   0.22813   0.00000  Uiso   1.00
Cu78   Cu    0.74500   0.16087   0.10521   0.00000  Uiso   1.00
C79    C     0.91047   0.20078   0.20896   0.00000  Uiso   1.00
C80    C     0.59037   0.11816   0.14471   0.00000  Uiso   1.00
C81    C     0.88398   0.16283   0.16582   0.00000  Uiso   1.00
C82    C     0.61578   0.16534   0.17122   0.00000  Uiso   1.00
C83    C     0.90385   0.11991   0.13062   0.00000  Uiso   1.00
C84    C     0.59666   0.20740   0.20904   0.00000  Uiso   1.00
C85    C     0.95014   0.11407   0.14398   0.00000  Uiso   1.00
C86    C     0.54993   0.20376   0.21515   0.00000  Uiso   1.00
C87    C     0.97684   0.15660   0.17977   0.00000  Uiso   1.00
C88    C     0.52399   0.15768   0.18244   0.00000  Uiso   1.00
C89    C     0.95647   0.19683   0.21613   0.00000  Uiso   1.00
C90    C     0.54421   0.11295   0.15269   0.00000  Uiso   1.00
C91    C     0.96976   0.06580   0.13165   0.00000  Uiso   1.00
C92    C     0.52697   0.24141   0.25523   0.00000  Uiso   1.00
C93    C     0.51707   0.06478   0.13612   0.00000  Uiso   1.00
C94    C     0.98262   0.23024   0.26255   0.00000  Uiso   1.00
C95    C     0.75033   0.01127   0.14319   0.00000  Uiso   1.00
C96    C     0.75236   0.32243   0.19061   0.00000  Uiso   1.00
H97    H     0.74933   0.32171   0.09734   0.00000  Uiso   1.00
H98    H     0.75431   0.01218   0.23666   0.00000  Uiso   1.00
N99    N     0.73745   0.15214   0.01284   0.00000  Uiso   1.00
N100   N     0.76256   0.18119   0.32049   0.00000  Uiso   1.00
I101   I     0.88291   0.27114   0.25353   0.00000  Uiso   1.00
I102   I     0.62471   0.05906   0.08894   0.00000  Uiso   1.00
C103   C     0.87794   0.08643   0.07386   0.00000  Uiso   1.00
C104   C     0.87824   0.11394   0.02094   0.00000  Uiso   1.00
C105   C     0.84555   0.08546   0.30125   0.00000  Uiso   1.00
H106   H     0.85029   0.04314   0.29077   0.00000  Uiso   1.00
H107   H     0.81061   0.09115   0.31220   0.00000  Uiso   1.00
H108   H     0.85156   0.10046   0.26046   0.00000  Uiso   1.00
H109   H     0.86963   0.15490   0.03498   0.00000  Uiso   1.00
H110   H     0.91249   0.11447   0.00574   0.00000  Uiso   1.00
H111   H     0.89316   0.04948   0.05723   0.00000  Uiso   1.00
H112   H     0.84339   0.07559   0.08309   0.00000  Uiso   1.00
C113   C     0.62768   0.25250   0.24616   0.00000  Uiso   1.00
C114   C     0.63732   0.24496   0.31117   0.00000  Uiso   1.00
C115   C     0.67800   0.27901   0.01067   0.00000  Uiso   1.00
H116   H     0.70888   0.26408   0.32529   0.00000  Uiso   1.00
H117   H     0.67590   0.31978   0.00556   0.00000  Uiso   1.00
H118   H     0.67968   0.27807   0.05936   0.00000  Uiso   1.00
H119   H     0.60809   0.25392   0.00401   0.00000  Uiso   1.00
H120   H     0.64365   0.20364   0.31068   0.00000  Uiso   1.00
H121   H     0.65962   0.25641   0.22592   0.00000  Uiso   1.00
H122   H     0.61495   0.29047   0.24396   0.00000  Uiso   1.00
I123   I     0.92883   0.33108   0.13672   0.00000  Uiso   1.00
I124   I     0.54334   0.32094   0.29997   0.00000  Uiso   1.00
I125   I     0.54366   0.32424   0.13931   0.00000  Uiso   1.00
I126   I     0.96830   0.22504   0.01779   0.00000  Uiso   1.00
I127   I     0.68904   0.09547   0.29928   0.00000  Uiso   1.00
I128   I     0.80942   0.23963   0.03410   0.00000  Uiso   1.00
O129   O     0.25326   0.42871   0.20659   0.00000  Uiso   1.00
O130   O     0.24675   0.57129   0.12674   0.00000  Uiso   1.00
O131   O     0.24480   0.41892   0.10279   0.00000  Uiso   1.00
O132   O     0.25520   0.58108   0.23055   0.00000  Uiso   1.00
C133   C     0.24943   0.40027   0.15140   0.00000  Uiso   1.00
C134   C     0.25158   0.59985   0.18201   0.00000  Uiso   1.00
O135   O     0.18936   0.50488   0.21857   0.00000  Uiso   1.00
O136   O     0.31065   0.49512   0.11476   0.00000  Uiso   1.00
O137   O     0.18090   0.49510   0.11477   0.00000  Uiso   1.00
O138   O     0.31910   0.50490   0.21857   0.00000  Uiso   1.00
C139   C     0.16454   0.50024   0.16761   0.00000  Uiso   1.00
C140   C     0.33535   0.49831   0.16579   0.00000  Uiso   1.00
Cu141  Cu    0.25501   0.50579   0.22813   0.00000  Uiso   1.00
Cu142  Cu    0.24500   0.49421   0.10521   0.00000  Uiso   1.00
C143   C     0.41047   0.53412   0.20896   0.00000  Uiso   1.00
C144   C     0.09037   0.45149   0.14471   0.00000  Uiso   1.00
C145   C     0.38398   0.49616   0.16582   0.00000  Uiso   1.00
C146   C     0.11578   0.49868   0.17122   0.00000  Uiso   1.00
C147   C     0.40385   0.45324   0.13062   0.00000  Uiso   1.00
C148   C     0.09666   0.54073   0.20904   0.00000  Uiso   1.00
C149   C     0.45014   0.44740   0.14398   0.00000  Uiso   1.00
C150   C     0.04993   0.53709   0.21515   0.00000  Uiso   1.00
C151   C     0.47684   0.48993   0.17977   0.00000  Uiso   1.00
C152   C     0.02399   0.49101   0.18244   0.00000  Uiso   1.00
C153   C     0.45647   0.53017   0.21613   0.00000  Uiso   1.00
C154   C     0.04421   0.44629   0.15269   0.00000  Uiso   1.00
C155   C     0.46976   0.39914   0.13165   0.00000  Uiso   1.00
C156   C     0.02697   0.57474   0.25523   0.00000  Uiso   1.00
C157   C     0.01707   0.39812   0.13612   0.00000  Uiso   1.00
C158   C     0.48262   0.56357   0.26255   0.00000  Uiso   1.00
C159   C     0.25033   0.34461   0.14319   0.00000  Uiso   1.00
C160   C     0.25236   0.65576   0.19061   0.00000  Uiso   1.00
H161   H     0.24933   0.65505   0.09734   0.00000  Uiso   1.00
H162   H     0.25431   0.34551   0.23666   0.00000  Uiso   1.00
N163   N     0.23745   0.48547   0.01284   0.00000  Uiso   1.00
N164   N     0.26256   0.51453   0.32049   0.00000  Uiso   1.00
I165   I     0.38291   0.60447   0.25353   0.00000  Uiso   1.00
I166   I     0.12471   0.39239   0.08894   0.00000  Uiso   1.00
C167   C     0.37794   0.41976   0.07386   0.00000  Uiso   1.00
C168   C     0.37824   0.44727   0.02094   0.00000  Uiso   1.00
C169   C     0.34555   0.41879   0.30125   0.00000  Uiso   1.00
H170   H     0.35029   0.37648   0.29077   0.00000  Uiso   1.00
H171   H     0.31061   0.42448   0.31220   0.00000  Uiso   1.00
H172   H     0.35156   0.43379   0.26046   0.00000  Uiso   1.00
H173   H     0.36963   0.48824   0.03498   0.00000  Uiso   1.00
H174   H     0.41249   0.44781   0.00574   0.00000  Uiso   1.00
H175   H     0.39316   0.38281   0.05723   0.00000  Uiso   1.00
H176   H     0.34339   0.40893   0.08309   0.00000  Uiso   1.00
C177   C     0.12768   0.58583   0.24616   0.00000  Uiso   1.00
C178   C     0.13732   0.57829   0.31117   0.00000  Uiso   1.00
C179   C     0.17800   0.61234   0.01067   0.00000  Uiso   1.00
H180   H     0.20888   0.59741   0.32529   0.00000  Uiso   1.00
H181   H     0.17590   0.65311   0.00556   0.00000  Uiso   1.00
H182   H     0.17968   0.61140   0.05936   0.00000  Uiso   1.00
H183   H     0.10809   0.58725   0.00401   0.00000  Uiso   1.00
H184   H     0.14365   0.53697   0.31068   0.00000  Uiso   1.00
H185   H     0.15962   0.58974   0.22592   0.00000  Uiso   1.00
H186   H     0.11495   0.62381   0.24396   0.00000  Uiso   1.00
I187   I     0.42883   0.66441   0.13672   0.00000  Uiso   1.00
I188   I     0.04334   0.65427   0.29997   0.00000  Uiso   1.00
I189   I     0.04366   0.65757   0.13931   0.00000  Uiso   1.00
I190   I     0.46830   0.55837   0.01779   0.00000  Uiso   1.00
I191   I     0.18904   0.42881   0.29928   0.00000  Uiso   1.00
I192   I     0.30942   0.57296   0.03410   0.00000  Uiso   1.00
O193   O     0.75326   0.42871   0.20659   0.00000  Uiso   1.00
O194   O     0.74675   0.57129   0.12674   0.00000  Uiso   1.00
O195   O     0.74480   0.41892   0.10279   0.00000  Uiso   1.00
O196   O     0.75520   0.58108   0.23055   0.00000  Uiso   1.00
C197   C     0.74943   0.40027   0.15140   0.00000  Uiso   1.00
C198   C     0.75158   0.59985   0.18201   0.00000  Uiso   1.00
O199   O     0.68936   0.50488   0.21857   0.00000  Uiso   1.00
O200   O     0.81065   0.49512   0.11476   0.00000  Uiso   1.00
O201   O     0.68090   0.49510   0.11477   0.00000  Uiso   1.00
O202   O     0.81910   0.50490   0.21857   0.00000  Uiso   1.00
C203   C     0.66454   0.50024   0.16761   0.00000  Uiso   1.00
C204   C     0.83535   0.49831   0.16579   0.00000  Uiso   1.00
Cu205  Cu    0.75501   0.50579   0.22813   0.00000  Uiso   1.00
Cu206  Cu    0.74500   0.49421   0.10521   0.00000  Uiso   1.00
C207   C     0.91047   0.53412   0.20896   0.00000  Uiso   1.00
C208   C     0.59037   0.45149   0.14471   0.00000  Uiso   1.00
C209   C     0.88398   0.49616   0.16582   0.00000  Uiso   1.00
C210   C     0.61578   0.49868   0.17122   0.00000  Uiso   1.00
C211   C     0.90385   0.45324   0.13062   0.00000  Uiso   1.00
C212   C     0.59666   0.54073   0.20904   0.00000  Uiso   1.00
C213   C     0.95014   0.44740   0.14398   0.00000  Uiso   1.00
C214   C     0.54993   0.53709   0.21515   0.00000  Uiso   1.00
C215   C     0.97684   0.48993   0.17977   0.00000  Uiso   1.00
C216   C     0.52399   0.49101   0.18244   0.00000  Uiso   1.00
C217   C     0.95647   0.53017   0.21613   0.00000  Uiso   1.00
C218   C     0.54421   0.44629   0.15269   0.00000  Uiso   1.00
C219   C     0.96976   0.39914   0.13165   0.00000  Uiso   1.00
C220   C     0.52697   0.57474   0.25523   0.00000  Uiso   1.00
C221   C     0.51707   0.39812   0.13612   0.00000  Uiso   1.00
C222   C     0.98262   0.56357   0.26255   0.00000  Uiso   1.00
C223   C     0.75033   0.34461   0.14319   0.00000  Uiso   1.00
C224   C     0.75236   0.65576   0.19061   0.00000  Uiso   1.00
H225   H     0.74933   0.65505   0.09734   0.00000  Uiso   1.00
H226   H     0.75431   0.34551   0.23666   0.00000  Uiso   1.00
N227   N     0.73745   0.48547   0.01284   0.00000  Uiso   1.00
N228   N     0.76256   0.51453   0.32049   0.00000  Uiso   1.00
I229   I     0.88291   0.60447   0.25353   0.00000  Uiso   1.00
I230   I     0.62471   0.39239   0.08894   0.00000  Uiso   1.00
C231   C     0.87794   0.41976   0.07386   0.00000  Uiso   1.00
C232   C     0.87824   0.44727   0.02094   0.00000  Uiso   1.00
C233   C     0.84555   0.41879   0.30125   0.00000  Uiso   1.00
H234   H     0.85029   0.37648   0.29077   0.00000  Uiso   1.00
H235   H     0.81061   0.42448   0.31220   0.00000  Uiso   1.00
H236   H     0.85156   0.43379   0.26046   0.00000  Uiso   1.00
H237   H     0.86963   0.48824   0.03498   0.00000  Uiso   1.00
H238   H     0.91249   0.44781   0.00574   0.00000  Uiso   1.00
H239   H     0.89316   0.38281   0.05723   0.00000  Uiso   1.00
H240   H     0.84339   0.40893   0.08309   0.00000  Uiso   1.00
C241   C     0.62768   0.58583   0.24616   0.00000  Uiso   1.00
C242   C     0.63732   0.57829   0.31117   0.00000  Uiso   1.00
C243   C     0.67800   0.61234   0.01067   0.00000  Uiso   1.00
H244   H     0.70888   0.59741   0.32529   0.00000  Uiso   1.00
H245   H     0.67590   0.65311   0.00556   0.00000  Uiso   1.00
H246   H     0.67968   0.61140   0.05936   0.00000  Uiso   1.00
H247   H     0.60809   0.58725   0.00401   0.00000  Uiso   1.00
H248   H     0.64365   0.53697   0.31068   0.00000  Uiso   1.00
H249   H     0.65962   0.58974   0.22592   0.00000  Uiso   1.00
H250   H     0.61495   0.62381   0.24396   0.00000  Uiso   1.00
I251   I     0.92883   0.66441   0.13672   0.00000  Uiso   1.00
I252   I     0.54334   0.65427   0.29997   0.00000  Uiso   1.00
I253   I     0.54366   0.65757   0.13931   0.00000  Uiso   1.00
I254   I     0.96830   0.55837   0.01779   0.00000  Uiso   1.00
I255   I     0.68904   0.42881   0.29928   0.00000  Uiso   1.00
I256   I     0.80942   0.57296   0.03410   0.00000  Uiso   1.00
O257   O     0.25326   0.76204   0.20659   0.00000  Uiso   1.00
O258   O     0.24675   0.90462   0.12674   0.00000  Uiso   1.00
O259   O     0.24480   0.75226   0.10279   0.00000  Uiso   1.00
O260   O     0.25520   0.91441   0.23055   0.00000  Uiso   1.00
C261   C     0.24943   0.73360   0.15140   0.00000  Uiso   1.00
C262   C     0.25158   0.93318   0.18201   0.00000  Uiso   1.00
O263   O     0.18936   0.83821   0.21857   0.00000  Uiso   1.00
O264   O     0.31065   0.82845   0.11476   0.00000  Uiso   1.00
O265   O     0.18090   0.82843   0.11477   0.00000  Uiso   1.00
O266   O     0.31910   0.83824   0.21857   0.00000  Uiso   1.00
C267   C     0.16454   0.83357   0.16761   0.00000  Uiso   1.00
C268   C     0.33535   0.83165   0.16579   0.00000  Uiso   1.00
Cu269  Cu    0.25501   0.83913   0.22813   0.00000  Uiso   1.00
Cu270  Cu    0.24500   0.82754   0.10521   0.00000  Uiso   1.00
C271   C     0.41047   0.86745   0.20896   0.00000  Uiso   1.00
C272   C     0.09037   0.78482   0.14471   0.00000  Uiso   1.00
C273   C     0.38398   0.82949   0.16582   0.00000  Uiso   1.00
C274   C     0.11578   0.83201   0.17122   0.00000  Uiso   1.00
C275   C     0.40385   0.78657   0.13062   0.00000  Uiso   1.00
C276   C     0.09666   0.87407   0.20904   0.00000  Uiso   1.00
C277   C     0.45014   0.78073   0.14398   0.00000  Uiso   1.00
C278   C     0.04993   0.87042   0.21515   0.00000  Uiso   1.00
C279   C     0.47684   0.82326   0.17977   0.00000  Uiso   1.00
C280   C     0.02399   0.82435   0.18244   0.00000  Uiso   1.00
C281   C     0.45647   0.86350   0.21613   0.00000  Uiso   1.00
C282   C     0.04421   0.77962   0.15269   0.00000  Uiso   1.00
C283   C     0.46976   0.73247   0.13165   0.00000  Uiso   1.00
C284   C     0.02697   0.90807   0.25523   0.00000  Uiso   1.00
C285   C     0.01707   0.73145   0.13612   0.00000  Uiso   1.00
C286   C     0.48262   0.89690   0.26255   0.00000  Uiso   1.00
C287   C     0.25033   0.67794   0.14319   0.00000  Uiso   1.00
C288   C     0.25236   0.98910   0.19061   0.00000  Uiso   1.00
H289   H     0.24933   0.98838   0.09734   0.00000  Uiso   1.00
H290   H     0.25431   0.67885   0.23666   0.00000  Uiso   1.00
N291   N     0.23745   0.81881   0.01284   0.00000  Uiso   1.00
N292   N     0.26256   0.84786   0.32049   0.00000  Uiso   1.00
I293   I     0.38291   0.93780   0.25353   0.00000  Uiso   1.00
I294   I     0.12471   0.72572   0.08894   0.00000  Uiso   1.00
C295   C     0.37794   0.75309   0.07386   0.00000  Uiso   1.00
C296   C     0.37824   0.78060   0.02094   0.00000  Uiso   1.00
C297   C     0.34555   0.75212   0.30125   0.00000  Uiso   1.00
H298   H     0.35029   0.70981   0.29077   0.00000  Uiso   1.00
H299   H     0.31061   0.75781   0.31220   0.00000  Uiso   1.00
H300   H     0.35156   0.76712   0.26046   0.00000  Uiso   1.00
H301   H     0.36963   0.82157   0.03498   0.00000  Uiso   1.00
H302   H     0.41249   0.78114   0.00574   0.00000  Uiso   1.00
H303   H     0.39316   0.71615   0.05723   0.00000  Uiso   1.00
H304   H     0.34339   0.74226   0.08309   0.00000  Uiso   1.00
C305   C     0.12768   0.91916   0.24616   0.00000  Uiso   1.00
C306   C     0.13732   0.91162   0.31117   0.00000  Uiso   1.00
C307   C     0.17800   0.94568   0.01067   0.00000  Uiso   1.00
H308   H     0.20888   0.93074   0.32529   0.00000  Uiso   1.00
H309   H     0.17590   0.98645   0.00556   0.00000  Uiso   1.00
H310   H     0.17968   0.94474   0.05936   0.00000  Uiso   1.00
H311   H     0.10809   0.92058   0.00401   0.00000  Uiso   1.00
H312   H     0.14365   0.87030   0.31068   0.00000  Uiso   1.00
H313   H     0.15962   0.92307   0.22592   0.00000  Uiso   1.00
H314   H     0.11495   0.95714   0.24396   0.00000  Uiso   1.00
I315   I     0.42883   0.99774   0.13672   0.00000  Uiso   1.00
I316   I     0.04334   0.98761   0.29997   0.00000  Uiso   1.00
I317   I     0.04366   0.99091   0.13931   0.00000  Uiso   1.00
I318   I     0.46830   0.89170   0.01779   0.00000  Uiso   1.00
I319   I     0.18904   0.76214   0.29928   0.00000  Uiso   1.00
I320   I     0.30942   0.90629   0.03410   0.00000  Uiso   1.00
O321   O     0.75326   0.76204   0.20659   0.00000  Uiso   1.00
O322   O     0.74675   0.90462   0.12674   0.00000  Uiso   1.00
O323   O     0.74480   0.75226   0.10279   0.00000  Uiso   1.00
O324   O     0.75520   0.91441   0.23055   0.00000  Uiso   1.00
C325   C     0.74943   0.73360   0.15140   0.00000  Uiso   1.00
C326   C     0.75158   0.93318   0.18201   0.00000  Uiso   1.00
O327   O     0.68936   0.83821   0.21857   0.00000  Uiso   1.00
O328   O     0.81065   0.82845   0.11476   0.00000  Uiso   1.00
O329   O     0.68090   0.82843   0.11477   0.00000  Uiso   1.00
O330   O     0.81910   0.83824   0.21857   0.00000  Uiso   1.00
C331   C     0.66454   0.83357   0.16761   0.00000  Uiso   1.00
C332   C     0.83535   0.83165   0.16579   0.00000  Uiso   1.00
Cu333  Cu    0.75501   0.83913   0.22813   0.00000  Uiso   1.00
Cu334  Cu    0.74500   0.82754   0.10521   0.00000  Uiso   1.00
C335   C     0.91047   0.86745   0.20896   0.00000  Uiso   1.00
C336   C     0.59037   0.78482   0.14471   0.00000  Uiso   1.00
C337   C     0.88398   0.82949   0.16582   0.00000  Uiso   1.00
C338   C     0.61578   0.83201   0.17122   0.00000  Uiso   1.00
C339   C     0.90385   0.78657   0.13062   0.00000  Uiso   1.00
C340   C     0.59666   0.87407   0.20904   0.00000  Uiso   1.00
C341   C     0.95014   0.78073   0.14398   0.00000  Uiso   1.00
C342   C     0.54993   0.87042   0.21515   0.00000  Uiso   1.00
C343   C     0.97684   0.82326   0.17977   0.00000  Uiso   1.00
C344   C     0.52399   0.82435   0.18244   0.00000  Uiso   1.00
C345   C     0.95647   0.86350   0.21613   0.00000  Uiso   1.00
C346   C     0.54421   0.77962   0.15269   0.00000  Uiso   1.00
C347   C     0.96976   0.73247   0.13165   0.00000  Uiso   1.00
C348   C     0.52697   0.90807   0.25523   0.00000  Uiso   1.00
C349   C     0.51707   0.73145   0.13612   0.00000  Uiso   1.00
C350   C     0.98262   0.89690   0.26255   0.00000  Uiso   1.00
C351   C     0.75033   0.67794   0.14319   0.00000  Uiso   1.00
C352   C     0.75236   0.98910   0.19061   0.00000  Uiso   1.00
H353   H     0.74933   0.98838   0.09734   0.00000  Uiso   1.00
H354   H     0.75431   0.67885   0.23666   0.00000  Uiso   1.00
N355   N     0.73745   0.81881   0.01284   0.00000  Uiso   1.00
N356   N     0.76256   0.84786   0.32049   0.00000  Uiso   1.00
I357   I     0.88291   0.93780   0.25353   0.00000  Uiso   1.00
I358   I     0.62471   0.72572   0.08894   0.00000  Uiso   1.00
C359   C     0.87794   0.75309   0.07386   0.00000  Uiso   1.00
C360   C     0.87824   0.78060   0.02094   0.00000  Uiso   1.00
C361   C     0.84555   0.75212   0.30125   0.00000  Uiso   1.00
H362   H     0.85029   0.70981   0.29077   0.00000  Uiso   1.00
H363   H     0.81061   0.75781   0.31220   0.00000  Uiso   1.00
H364   H     0.85156   0.76712   0.26046   0.00000  Uiso   1.00
H365   H     0.86963   0.82157   0.03498   0.00000  Uiso   1.00
H366   H     0.91249   0.78114   0.00574   0.00000  Uiso   1.00
H367   H     0.89316   0.71615   0.05723   0.00000  Uiso   1.00
H368   H     0.84339   0.74226   0.08309   0.00000  Uiso   1.00
C369   C     0.62768   0.91916   0.24616   0.00000  Uiso   1.00
C370   C     0.63732   0.91162   0.31117   0.00000  Uiso   1.00
C371   C     0.67800   0.94568   0.01067   0.00000  Uiso   1.00
H372   H     0.70888   0.93074   0.32529   0.00000  Uiso   1.00
H373   H     0.67590   0.98645   0.00556   0.00000  Uiso   1.00
H374   H     0.67968   0.94474   0.05936   0.00000  Uiso   1.00
H375   H     0.60809   0.92058   0.00401   0.00000  Uiso   1.00
H376   H     0.64365   0.87030   0.31068   0.00000  Uiso   1.00
H377   H     0.65962   0.92307   0.22592   0.00000  Uiso   1.00
H378   H     0.61495   0.95714   0.24396   0.00000  Uiso   1.00
I379   I     0.92883   0.99774   0.13672   0.00000  Uiso   1.00
I380   I     0.54334   0.98761   0.29997   0.00000  Uiso   1.00
I381   I     0.54366   0.99091   0.13931   0.00000  Uiso   1.00
I382   I     0.96830   0.89170   0.01779   0.00000  Uiso   1.00
I383   I     0.68904   0.76214   0.29928   0.00000  Uiso   1.00
I384   I     0.80942   0.90629   0.03410   0.00000  Uiso   1.00
O385   O     0.25326   0.09538   0.53992   0.00000  Uiso   1.00
O386   O     0.24675   0.23796   0.46008   0.00000  Uiso   1.00
O387   O     0.24480   0.08559   0.43612   0.00000  Uiso   1.00
O388   O     0.25520   0.24774   0.56388   0.00000  Uiso   1.00
C389   C     0.24943   0.06694   0.48474   0.00000  Uiso   1.00
C390   C     0.25158   0.26651   0.51534   0.00000  Uiso   1.00
O391   O     0.18936   0.17155   0.55191   0.00000  Uiso   1.00
O392   O     0.31065   0.16179   0.44809   0.00000  Uiso   1.00
O393   O     0.18090   0.16176   0.44810   0.00000  Uiso   1.00
O394   O     0.31910   0.17157   0.55190   0.00000  Uiso   1.00
C395   C     0.16454   0.16690   0.50094   0.00000  Uiso   1.00
C396   C     0.33535   0.16498   0.49913   0.00000  Uiso   1.00
Cu397  Cu    0.25501   0.17246   0.56146   0.00000  Uiso   1.00
Cu398  Cu    0.24500   0.16087   0.43854   0.00000  Uiso   1.00
C399   C     0.41047   0.20078   0.54229   0.00000  Uiso   1.00
C400   C     0.09037   0.11816   0.47804   0.00000  Uiso   1.00
C401   C     0.38398   0.16283   0.49915   0.00000  Uiso   1.00
C402   C     0.11578   0.16534   0.50455   0.00000  Uiso   1.00
C403   C     0.40385   0.11991   0.46395   0.00000  Uiso   1.00
C404   C     0.09666   0.20740   0.54237   0.00000  Uiso   1.00
C405   C     0.45014   0.11407   0.47731   0.00000  Uiso   1.00
C406   C     0.04993   0.20376   0.54849   0.00000  Uiso   1.00
C407   C     0.47684   0.15660   0.51311   0.00000  Uiso   1.00
C408   C     0.02399   0.15768   0.51577   0.00000  Uiso   1.00
C409   C     0.45647   0.19683   0.54947   0.00000  Uiso   1.00
C410   C     0.04421   0.11295   0.48602   0.00000  Uiso   1.00
C411   C     0.46976   0.06580   0.46498   0.00000  Uiso   1.00
C412   C     0.02697   0.24141   0.58856   0.00000  Uiso   1.00
C413   C     0.01707   0.06478   0.46945   0.00000  Uiso   1.00
C414   C     0.48262   0.23024   0.59588   0.00000  Uiso   1.00
C415   C     0.25033   0.01127   0.47653   0.00000  Uiso   1.00
C416   C     0.25236   0.32243   0.52394   0.00000  Uiso   1.00
H417   H     0.24933   0.32171   0.43067   0.00000  Uiso   1.00
H418   H     0.25431   0.01218   0.57000   0.00000  Uiso   1.00
N419   N     0.23745   0.15214   0.34617   0.00000  Uiso   1.00
N420   N     0.26256   0.18119   0.65383   0.00000  Uiso   1.00
I421   I     0.38291   0.27114   0.58686   0.00000  Uiso   1.00
I422   I     0.12471   0.05906   0.42228   0.00000  Uiso   1.00
C423   C     0.37794   0.08643   0.40719   0.00000  Uiso   1.00
C424   C     0.37824   0.11394   0.35428   0.00000  Uiso   1.00
C425   C     0.34555   0.08546   0.63458   0.00000  Uiso   1.00
H426   H     0.35029   0.04314   0.62411   0.00000  Uiso   1.00
H427   H     0.31061   0.09115   0.64554   0.00000  Uiso   1.00
H428   H     0.35156   0.10046   0.59379   0.00000  Uiso   1.00
H429   H     0.36963   0.15490   0.36831   0.00000  Uiso   1.00
H430   H     0.41249   0.11447   0.33907   0.00000  Uiso   1.00
H431   H     0.39316   0.04948   0.39056   0.00000  Uiso   1.00
H432   H     0.34339   0.07559   0.41642   0.00000  Uiso   1.00
C433   C     0.12768   0.25250   0.57949   0.00000  Uiso   1.00
C434   C     0.13732   0.24496   0.64450   0.00000  Uiso   1.00
C435   C     0.17800   0.27901   0.34400   0.00000  Uiso   1.00
H436   H     0.20888   0.26408   0.65863   0.00000  Uiso   1.00
H437   H     0.17590   0.31978   0.33889   0.00000  Uiso   1.00
H438   H     0.17968   0.27807   0.39269   0.00000  Uiso   1.00
H439   H     0.10809   0.25392   0.33735   0.00000  Uiso   1.00
H440   H     0.14365   0.20364   0.64402   0.00000  Uiso   1.00
H441   H     0.15962   0.25641   0.55926   0.00000  Uiso   1.00
H442   H     0.11495   0.29047   0.57729   0.00000  Uiso   1.00
I443   I     0.42883   0.33108   0.47005   0.00000  Uiso   1.00
I444   I     0.04334   0.32094   0.63330   0.00000  Uiso   1.00
I445   I     0.04366   0.32424   0.47264   0.00000  Uiso   1.00
I446   I     0.46830   0.22504   0.35113   0.00000  Uiso   1.00
I447   I     0.18904   0.09547   0.63262   0.00000  Uiso   1.00
I448   I     0.30942   0.23963   0.36744   0.00000  Uiso   1.00
O449   O     0.75326   0.09538   0.53992   0.00000  Uiso   1.00
O450   O     0.74675   0.23796   0.46008   0.00000  Uiso   1.00
O451   O     0.74480   0.08559   0.43612   0.00000  Uiso   1.00
O452   O     0.75520   0.24774   0.56388   0.00000  Uiso   1.00
C453   C     0.74943   0.06694   0.48474   0.00000  Uiso   1.00
C454   C     0.75158   0.26651   0.51534   0.00000  Uiso   1.00
O455   O     0.68936   0.17155   0.55191   0.00000  Uiso   1.00
O456   O     0.81065   0.16179   0.44809   0.00000  Uiso   1.00
O457   O     0.68090   0.16176   0.44810   0.00000  Uiso   1.00
O458   O     0.81910   0.17157   0.55190   0.00000  Uiso   1.00
C459   C     0.66454   0.16690   0.50094   0.00000  Uiso   1.00
C460   C     0.83535   0.16498   0.49913   0.00000  Uiso   1.00
Cu461  Cu    0.75501   0.17246   0.56146   0.00000  Uiso   1.00
Cu462  Cu    0.74500   0.16087   0.43854   0.00000  Uiso   1.00
C463   C     0.91047   0.20078   0.54229   0.00000  Uiso   1.00
C464   C     0.59037   0.11816   0.47804   0.00000  Uiso   1.00
C465   C     0.88398   0.16283   0.49915   0.00000  Uiso   1.00
C466   C     0.61578   0.16534   0.50455   0.00000  Uiso   1.00
C467   C     0.90385   0.11991   0.46395   0.00000  Uiso   1.00
C468   C     0.59666   0.20740   0.54237   0.00000  Uiso   1.00
C469   C     0.95014   0.11407   0.47731   0.00000  Uiso   1.00
C470   C     0.54993   0.20376   0.54849   0.00000  Uiso   1.00
C471   C     0.97684   0.15660   0.51311   0.00000  Uiso   1.00
C472   C     0.52399   0.15768   0.51577   0.00000  Uiso   1.00
C473   C     0.95647   0.19683   0.54947   0.00000  Uiso   1.00
C474   C     0.54421   0.11295   0.48602   0.00000  Uiso   1.00
C475   C     0.96976   0.06580   0.46498   0.00000  Uiso   1.00
C476   C     0.52697   0.24141   0.58856   0.00000  Uiso   1.00
C477   C     0.51707   0.06478   0.46945   0.00000  Uiso   1.00
C478   C     0.98262   0.23024   0.59588   0.00000  Uiso   1.00
C479   C     0.75033   0.01127   0.47653   0.00000  Uiso   1.00
C480   C     0.75236   0.32243   0.52394   0.00000  Uiso   1.00
H481   H     0.74933   0.32171   0.43067   0.00000  Uiso   1.00
H482   H     0.75431   0.01218   0.57000   0.00000  Uiso   1.00
N483   N     0.73745   0.15214   0.34617   0.00000  Uiso   1.00
N484   N     0.76256   0.18119   0.65383   0.00000  Uiso   1.00
I485   I     0.88291   0.27114   0.58686   0.00000  Uiso   1.00
I486   I     0.62471   0.05906   0.42228   0.00000  Uiso   1.00
C487   C     0.87794   0.08643   0.40719   0.00000  Uiso   1.00
C488   C     0.87824   0.11394   0.35428   0.00000  Uiso   1.00
C489   C     0.84555   0.08546   0.63458   0.00000  Uiso   1.00
H490   H     0.85029   0.04314   0.62411   0.00000  Uiso   1.00
H491   H     0.81061   0.09115   0.64554   0.00000  Uiso   1.00
H492   H     0.85156   0.10046   0.59379   0.00000  Uiso   1.00
H493   H     0.86963   0.15490   0.36831   0.00000  Uiso   1.00
H494   H     0.91249   0.11447   0.33907   0.00000  Uiso   1.00
H495   H     0.89316   0.04948   0.39056   0.00000  Uiso   1.00
H496   H     0.84339   0.07559   0.41642   0.00000  Uiso   1.00
C497   C     0.62768   0.25250   0.57949   0.00000  Uiso   1.00
C498   C     0.63732   0.24496   0.64450   0.00000  Uiso   1.00
C499   C     0.67800   0.27901   0.34400   0.00000  Uiso   1.00
H500   H     0.70888   0.26408   0.65863   0.00000  Uiso   1.00
H501   H     0.67590   0.31978   0.33889   0.00000  Uiso   1.00
H502   H     0.67968   0.27807   0.39269   0.00000  Uiso   1.00
H503   H     0.60809   0.25392   0.33735   0.00000  Uiso   1.00
H504   H     0.64365   0.20364   0.64402   0.00000  Uiso   1.00
H505   H     0.65962   0.25641   0.55926   0.00000  Uiso   1.00
H506   H     0.61495   0.29047   0.57729   0.00000  Uiso   1.00
I507   I     0.92883   0.33108   0.47005   0.00000  Uiso   1.00
I508   I     0.54334   0.32094   0.63330   0.00000  Uiso   1.00
I509   I     0.54366   0.32424   0.47264   0.00000  Uiso   1.00
I510   I     0.96830   0.22504   0.35113   0.00000  Uiso   1.00
I511   I     0.68904   0.09547   0.63262   0.00000  Uiso   1.00
I512   I     0.80942   0.23963   0.36744   0.00000  Uiso   1.00
O513   O     0.25326   0.42871   0.53992   0.00000  Uiso   1.00
O514   O     0.24675   0.57129   0.46008   0.00000  Uiso   1.00
O515   O     0.24480   0.41892   0.43612   0.00000  Uiso   1.00
O516   O     0.25520   0.58108   0.56388   0.00000  Uiso   1.00
C517   C     0.24943   0.40027   0.48474   0.00000  Uiso   1.00
C518   C     0.25158   0.59985   0.51534   0.00000  Uiso   1.00
O519   O     0.18936   0.50488   0.55191   0.00000  Uiso   1.00
O520   O     0.31065   0.49512   0.44809   0.00000  Uiso   1.00
O521   O     0.18090   0.49510   0.44810   0.00000  Uiso   1.00
O522   O     0.31910   0.50490   0.55190   0.00000  Uiso   1.00
C523   C     0.16454   0.50024   0.50094   0.00000  Uiso   1.00
C524   C     0.33535   0.49831   0.49913   0.00000  Uiso   1.00
Cu525  Cu    0.25501   0.50579   0.56146   0.00000  Uiso   1.00
Cu526  Cu    0.24500   0.49421   0.43854   0.00000  Uiso   1.00
C527   C     0.41047   0.53412   0.54229   0.00000  Uiso   1.00
C528   C     0.09037   0.45149   0.47804   0.00000  Uiso   1.00
C529   C     0.38398   0.49616   0.49915   0.00000  Uiso   1.00
C530   C     0.11578   0.49868   0.50455   0.00000  Uiso   1.00
C531   C     0.40385   0.45324   0.46395   0.00000  Uiso   1.00
C532   C     0.09666   0.54073   0.54237   0.00000  Uiso   1.00
C533   C     0.45014   0.44740   0.47731   0.00000  Uiso   1.00
C534   C     0.04993   0.53709   0.54849   0.00000  Uiso   1.00
C535   C     0.47684   0.48993   0.51311   0.00000  Uiso   1.00
C536   C     0.02399   0.49101   0.51577   0.00000  Uiso   1.00
C537   C     0.45647   0.53017   0.54947   0.00000  Uiso   1.00
C538   C     0.04421   0.44629   0.48602   0.00000  Uiso   1.00
C539   C     0.46976   0.39914   0.46498   0.00000  Uiso   1.00
C540   C     0.02697   0.57474   0.58856   0.00000  Uiso   1.00
C541   C     0.01707   0.39812   0.46945   0.00000  Uiso   1.00
C542   C     0.48262   0.56357   0.59588   0.00000  Uiso   1.00
C543   C     0.25033   0.34461   0.47653   0.00000  Uiso   1.00
C544   C     0.25236   0.65576   0.52394   0.00000  Uiso   1.00
H545   H     0.24933   0.65505   0.43067   0.00000  Uiso   1.00
H546   H     0.25431   0.34551   0.57000   0.00000  Uiso   1.00
N547   N     0.23745   0.48547   0.34617   0.00000  Uiso   1.00
N548   N     0.26256   0.51453   0.65383   0.00000  Uiso   1.00
I549   I     0.38291   0.60447   0.58686   0.00000  Uiso   1.00
I550   I     0.12471   0.39239   0.42228   0.00000  Uiso   1.00
C551   C     0.37794   0.41976   0.40719   0.00000  Uiso   1.00
C552   C     0.37824   0.44727   0.35428   0.00000  Uiso   1.00
C553   C     0.34555   0.41879   0.63458   0.00000  Uiso   1.00
H554   H     0.35029   0.37648   0.62411   0.00000  Uiso   1.00
H555   H     0.31061   0.42448   0.64554   0.00000  Uiso   1.00
H556   H     0.35156   0.43379   0.59379   0.00000  Uiso   1.00
H557   H     0.36963   0.48824   0.36831   0.00000  Uiso   1.00
H558   H     0.41249   0.44781   0.33907   0.00000  Uiso   1.00
H559   H     0.39316   0.38281   0.39056   0.00000  Uiso   1.00
H560   H     0.34339   0.40893   0.41642   0.00000  Uiso   1.00
C561   C     0.12768   0.58583   0.57949   0.00000  Uiso   1.00
C562   C     0.13732   0.57829   0.64450   0.00000  Uiso   1.00
C563   C     0.17800   0.61234   0.34400   0.00000  Uiso   1.00
H564   H     0.20888   0.59741   0.65863   0.00000  Uiso   1.00
H565   H     0.17590   0.65311   0.33889   0.00000  Uiso   1.00
H566   H     0.17968   0.61140   0.39269   0.00000  Uiso   1.00
H567   H     0.10809   0.58725   0.33735   0.00000  Uiso   1.00
H568   H     0.14365   0.53697   0.64402   0.00000  Uiso   1.00
H569   H     0.15962   0.58974   0.55926   0.00000  Uiso   1.00
H570   H     0.11495   0.62381   0.57729   0.00000  Uiso   1.00
I571   I     0.42883   0.66441   0.47005   0.00000  Uiso   1.00
I572   I     0.04334   0.65427   0.63330   0.00000  Uiso   1.00
I573   I     0.04366   0.65757   0.47264   0.00000  Uiso   1.00
I574   I     0.46830   0.55837   0.35113   0.00000  Uiso   1.00
I575   I     0.18904   0.42881   0.63262   0.00000  Uiso   1.00
I576   I     0.30942   0.57296   0.36744   0.00000  Uiso   1.00
O577   O     0.75326   0.42871   0.53992   0.00000  Uiso   1.00
O578   O     0.74675   0.57129   0.46008   0.00000  Uiso   1.00
O579   O     0.74480   0.41892   0.43612   0.00000  Uiso   1.00
O580   O     0.75520   0.58108   0.56388   0.00000  Uiso   1.00
C581   C     0.74943   0.40027   0.48474   0.00000  Uiso   1.00
C582   C     0.75158   0.59985   0.51534   0.00000  Uiso   1.00
O583   O     0.68936   0.50488   0.55191   0.00000  Uiso   1.00
O584   O     0.81065   0.49512   0.44809   0.00000  Uiso   1.00
O585   O     0.68090   0.49510   0.44810   0.00000  Uiso   1.00
O586   O     0.81910   0.50490   0.55190   0.00000  Uiso   1.00
C587   C     0.66454   0.50024   0.50094   0.00000  Uiso   1.00
C588   C     0.83535   0.49831   0.49913   0.00000  Uiso   1.00
Cu589  Cu    0.75501   0.50579   0.56146   0.00000  Uiso   1.00
Cu590  Cu    0.74500   0.49421   0.43854   0.00000  Uiso   1.00
C591   C     0.91047   0.53412   0.54229   0.00000  Uiso   1.00
C592   C     0.59037   0.45149   0.47804   0.00000  Uiso   1.00
C593   C     0.88398   0.49616   0.49915   0.00000  Uiso   1.00
C594   C     0.61578   0.49868   0.50455   0.00000  Uiso   1.00
C595   C     0.90385   0.45324   0.46395   0.00000  Uiso   1.00
C596   C     0.59666   0.54073   0.54237   0.00000  Uiso   1.00
C597   C     0.95014   0.44740   0.47731   0.00000  Uiso   1.00
C598   C     0.54993   0.53709   0.54849   0.00000  Uiso   1.00
C599   C     0.97684   0.48993   0.51311   0.00000  Uiso   1.00
C600   C     0.52399   0.49101   0.51577   0.00000  Uiso   1.00
C601   C     0.95647   0.53017   0.54947   0.00000  Uiso   1.00
C602   C     0.54421   0.44629   0.48602   0.00000  Uiso   1.00
C603   C     0.96976   0.39914   0.46498   0.00000  Uiso   1.00
C604   C     0.52697   0.57474   0.58856   0.00000  Uiso   1.00
C605   C     0.51707   0.39812   0.46945   0.00000  Uiso   1.00
C606   C     0.98262   0.56357   0.59588   0.00000  Uiso   1.00
C607   C     0.75033   0.34461   0.47653   0.00000  Uiso   1.00
C608   C     0.75236   0.65576   0.52394   0.00000  Uiso   1.00
H609   H     0.74933   0.65505   0.43067   0.00000  Uiso   1.00
H610   H     0.75431   0.34551   0.57000   0.00000  Uiso   1.00
N611   N     0.73745   0.48547   0.34617   0.00000  Uiso   1.00
N612   N     0.76256   0.51453   0.65383   0.00000  Uiso   1.00
I613   I     0.88291   0.60447   0.58686   0.00000  Uiso   1.00
I614   I     0.62471   0.39239   0.42228   0.00000  Uiso   1.00
C615   C     0.87794   0.41976   0.40719   0.00000  Uiso   1.00
C616   C     0.87824   0.44727   0.35428   0.00000  Uiso   1.00
C617   C     0.84555   0.41879   0.63458   0.00000  Uiso   1.00
H618   H     0.85029   0.37648   0.62411   0.00000  Uiso   1.00
H619   H     0.81061   0.42448   0.64554   0.00000  Uiso   1.00
H620   H     0.85156   0.43379   0.59379   0.00000  Uiso   1.00
H621   H     0.86963   0.48824   0.36831   0.00000  Uiso   1.00
H622   H     0.91249   0.44781   0.33907   0.00000  Uiso   1.00
H623   H     0.89316   0.38281   0.39056   0.00000  Uiso   1.00
H624   H     0.84339   0.40893   0.41642   0.00000  Uiso   1.00
C625   C     0.62768   0.58583   0.57949   0.00000  Uiso   1.00
C626   C     0.63732   0.57829   0.64450   0.00000  Uiso   1.00
C627   C     0.67800   0.61234   0.34400   0.00000  Uiso   1.00
H628   H     0.70888   0.59741   0.65863   0.00000  Uiso   1.00
H629   H     0.67590   0.65311   0.33889   0.00000  Uiso   1.00
H630   H     0.67968   0.61140   0.39269   0.00000  Uiso   1.00
H631   H     0.60809   0.58725   0.33735   0.00000  Uiso   1.00
H632   H     0.64365   0.53697   0.64402   0.00000  Uiso   1.00
H633   H     0.65962   0.58974   0.55926   0.00000  Uiso   1.00
H634   H     0.61495   0.62381   0.57729   0.00000  Uiso   1.00
I635   I     0.92883   0.66441   0.47005   0.00000  Uiso   1.00
I636   I     0.54334   0.65427   0.63330   0.00000  Uiso   1.00
I637   I     0.54366   0.65757   0.47264   0.00000  Uiso   1.00
I638   I     0.96830   0.55837   0.35113   0.00000  Uiso   1.00
I639   I     0.68904   0.42881   0.63262   0.00000  Uiso   1.00
I640   I     0.80942   0.57296   0.36744   0.00000  Uiso   1.00
O641   O     0.25326   0.76204   0.53992   0.00000  Uiso   1.00
O642   O     0.24675   0.90462   0.46008   0.00000  Uiso   1.00
O643   O     0.24480   0.75226   0.43612   0.00000  Uiso   1.00
O644   O     0.25520   0.91441   0.56388   0.00000  Uiso   1.00
C645   C     0.24943   0.73360   0.48474   0.00000  Uiso   1.00
C646   C     0.25158   0.93318   0.51534   0.00000  Uiso   1.00
O647   O     0.18936   0.83821   0.55191   0.00000  Uiso   1.00
O648   O     0.31065   0.82845   0.44809   0.00000  Uiso   1.00
O649   O     0.18090   0.82843   0.44810   0.00000  Uiso   1.00
O650   O     0.31910   0.83824   0.55190   0.00000  Uiso   1.00
C651   C     0.16454   0.83357   0.50094   0.00000  Uiso   1.00
C652   C     0.33535   0.83165   0.49913   0.00000  Uiso   1.00
Cu653  Cu    0.25501   0.83913   0.56146   0.00000  Uiso   1.00
Cu654  Cu    0.24500   0.82754   0.43854   0.00000  Uiso   1.00
C655   C     0.41047   0.86745   0.54229   0.00000  Uiso   1.00
C656   C     0.09037   0.78482   0.47804   0.00000  Uiso   1.00
C657   C     0.38398   0.82949   0.49915   0.00000  Uiso   1.00
C658   C     0.11578   0.83201   0.50455   0.00000  Uiso   1.00
C659   C     0.40385   0.78657   0.46395   0.00000  Uiso   1.00
C660   C     0.09666   0.87407   0.54237   0.00000  Uiso   1.00
C661   C     0.45014   0.78073   0.47731   0.00000  Uiso   1.00
C662   C     0.04993   0.87042   0.54849   0.00000  Uiso   1.00
C663   C     0.47684   0.82326   0.51311   0.00000  Uiso   1.00
C664   C     0.02399   0.82435   0.51577   0.00000  Uiso   1.00
C665   C     0.45647   0.86350   0.54947   0.00000  Uiso   1.00
C666   C     0.04421   0.77962   0.48602   0.00000  Uiso   1.00
C667   C     0.46976   0.73247   0.46498   0.00000  Uiso   1.00
C668   C     0.02697   0.90807   0.58856   0.00000  Uiso   1.00
C669   C     0.01707   0.73145   0.46945   0.00000  Uiso   1.00
C670   C     0.48262   0.89690   0.59588   0.00000  Uiso   1.00
C671   C     0.25033   0.67794   0.47653   0.00000  Uiso   1.00
C672   C     0.25236   0.98910   0.52394   0.00000  Uiso   1.00
H673   H     0.24933   0.98838   0.43067   0.00000  Uiso   1.00
H674   H     0.25431   0.67885   0.57000   0.00000  Uiso   1.00
N675   N     0.23745   0.81881   0.34617   0.00000  Uiso   1.00
N676   N     0.26256   0.84786   0.65383   0.00000  Uiso   1.00
I677   I     0.38291   0.93780   0.58686   0.00000  Uiso   1.00
I678   I     0.12471   0.72572   0.42228   0.00000  Uiso   1.00
C679   C     0.37794   0.75309   0.40719   0.00000  Uiso   1.00
C680   C     0.37824   0.78060   0.35428   0.00000  Uiso   1.00
C681   C     0.34555   0.75212   0.63458   0.00000  Uiso   1.00
H682   H     0.35029   0.70981   0.62411   0.00000  Uiso   1.00
H683   H     0.31061   0.75781   0.64554   0.00000  Uiso   1.00
H684   H     0.35156   0.76712   0.59379   0.00000  Uiso   1.00
H685   H     0.36963   0.82157   0.36831   0.00000  Uiso   1.00
H686   H     0.41249   0.78114   0.33907   0.00000  Uiso   1.00
H687   H     0.39316   0.71615   0.39056   0.00000  Uiso   1.00
H688   H     0.34339   0.74226   0.41642   0.00000  Uiso   1.00
C689   C     0.12768   0.91916   0.57949   0.00000  Uiso   1.00
C690   C     0.13732   0.91162   0.64450   0.00000  Uiso   1.00
C691   C     0.17800   0.94568   0.34400   0.00000  Uiso   1.00
H692   H     0.20888   0.93074   0.65863   0.00000  Uiso   1.00
H693   H     0.17590   0.98645   0.33889   0.00000  Uiso   1.00
H694   H     0.17968   0.94474   0.39269   0.00000  Uiso   1.00
H695   H     0.10809   0.92058   0.33735   0.00000  Uiso   1.00
H696   H     0.14365   0.87030   0.64402   0.00000  Uiso   1.00
H697   H     0.15962   0.92307   0.55926   0.00000  Uiso   1.00
H698   H     0.11495   0.95714   0.57729   0.00000  Uiso   1.00
I699   I     0.42883   0.99774   0.47005   0.00000  Uiso   1.00
I700   I     0.04334   0.98761   0.63330   0.00000  Uiso   1.00
I701   I     0.04366   0.99091   0.47264   0.00000  Uiso   1.00
I702   I     0.46830   0.89170   0.35113   0.00000  Uiso   1.00
I703   I     0.18904   0.76214   0.63262   0.00000  Uiso   1.00
I704   I     0.30942   0.90629   0.36744   0.00000  Uiso   1.00
O705   O     0.75326   0.76204   0.53992   0.00000  Uiso   1.00
O706   O     0.74675   0.90462   0.46008   0.00000  Uiso   1.00
O707   O     0.74480   0.75226   0.43612   0.00000  Uiso   1.00
O708   O     0.75520   0.91441   0.56388   0.00000  Uiso   1.00
C709   C     0.74943   0.73360   0.48474   0.00000  Uiso   1.00
C710   C     0.75158   0.93318   0.51534   0.00000  Uiso   1.00
O711   O     0.68936   0.83821   0.55191   0.00000  Uiso   1.00
O712   O     0.81065   0.82845   0.44809   0.00000  Uiso   1.00
O713   O     0.68090   0.82843   0.44810   0.00000  Uiso   1.00
O714   O     0.81910   0.83824   0.55190   0.00000  Uiso   1.00
C715   C     0.66454   0.83357   0.50094   0.00000  Uiso   1.00
C716   C     0.83535   0.83165   0.49913   0.00000  Uiso   1.00
Cu717  Cu    0.75501   0.83913   0.56146   0.00000  Uiso   1.00
Cu718  Cu    0.74500   0.82754   0.43854   0.00000  Uiso   1.00
C719   C     0.91047   0.86745   0.54229   0.00000  Uiso   1.00
C720   C     0.59037   0.78482   0.47804   0.00000  Uiso   1.00
C721   C     0.88398   0.82949   0.49915   0.00000  Uiso   1.00
C722   C     0.61578   0.83201   0.50455   0.00000  Uiso   1.00
C723   C     0.90385   0.78657   0.46395   0.00000  Uiso   1.00
C724   C     0.59666   0.87407   0.54237   0.00000  Uiso   1.00
C725   C     0.95014   0.78073   0.47731   0.00000  Uiso   1.00
C726   C     0.54993   0.87042   0.54849   0.00000  Uiso   1.00
C727   C     0.97684   0.82326   0.51311   0.00000  Uiso   1.00
C728   C     0.52399   0.82435   0.51577   0.00000  Uiso   1.00
C729   C     0.95647   0.86350   0.54947   0.00000  Uiso   1.00
C730   C     0.54421   0.77962   0.48602   0.00000  Uiso   1.00
C731   C     0.96976   0.73247   0.46498   0.00000  Uiso   1.00
C732   C     0.52697   0.90807   0.58856   0.00000  Uiso   1.00
C733   C     0.51707   0.73145   0.46945   0.00000  Uiso   1.00
C734   C     0.98262   0.89690   0.59588   0.00000  Uiso   1.00
C735   C     0.75033   0.67794   0.47653   0.00000  Uiso   1.00
C736   C     0.75236   0.98910   0.52394   0.00000  Uiso   1.00
H737   H     0.74933   0.98838   0.43067   0.00000  Uiso   1.00
H738   H     0.75431   0.67885   0.57000   0.00000  Uiso   1.00
N739   N     0.73745   0.81881   0.34617   0.00000  Uiso   1.00
N740   N     0.76256   0.84786   0.65383   0.00000  Uiso   1.00
I741   I     0.88291   0.93780   0.58686   0.00000  Uiso   1.00
I742   I     0.62471   0.72572   0.42228   0.00000  Uiso   1.00
C743   C     0.87794   0.75309   0.40719   0.00000  Uiso   1.00
C744   C     0.87824   0.78060   0.35428   0.00000  Uiso   1.00
C745   C     0.84555   0.75212   0.63458   0.00000  Uiso   1.00
H746   H     0.85029   0.70981   0.62411   0.00000  Uiso   1.00
H747   H     0.81061   0.75781   0.64554   0.00000  Uiso   1.00
H748   H     0.85156   0.76712   0.59379   0.00000  Uiso   1.00
H749   H     0.86963   0.82157   0.36831   0.00000  Uiso   1.00
H750   H     0.91249   0.78114   0.33907   0.00000  Uiso   1.00
H751   H     0.89316   0.71615   0.39056   0.00000  Uiso   1.00
H752   H     0.84339   0.74226   0.41642   0.00000  Uiso   1.00
C753   C     0.62768   0.91916   0.57949   0.00000  Uiso   1.00
C754   C     0.63732   0.91162   0.64450   0.00000  Uiso   1.00
C755   C     0.67800   0.94568   0.34400   0.00000  Uiso   1.00
H756   H     0.70888   0.93074   0.65863   0.00000  Uiso   1.00
H757   H     0.67590   0.98645   0.33889   0.00000  Uiso   1.00
H758   H     0.67968   0.94474   0.39269   0.00000  Uiso   1.00
H759   H     0.60809   0.92058   0.33735   0.00000  Uiso   1.00
H760   H     0.64365   0.87030   0.64402   0.00000  Uiso   1.00
H761   H     0.65962   0.92307   0.55926   0.00000  Uiso   1.00
H762   H     0.61495   0.95714   0.57729   0.00000  Uiso   1.00
I763   I     0.92883   0.99774   0.47005   0.00000  Uiso   1.00
I764   I     0.54334   0.98761   0.63330   0.00000  Uiso   1.00
I765   I     0.54366   0.99091   0.47264   0.00000  Uiso   1.00
I766   I     0.96830   0.89170   0.35113   0.00000  Uiso   1.00
I767   I     0.68904   0.76214   0.63262   0.00000  Uiso   1.00
I768   I     0.80942   0.90629   0.36744   0.00000  Uiso   1.00
O769   O     0.25326   0.09538   0.87326   0.00000  Uiso   1.00
O770   O     0.24675   0.23796   0.79341   0.00000  Uiso   1.00
O771   O     0.24480   0.08559   0.76945   0.00000  Uiso   1.00
O772   O     0.25520   0.24774   0.89721   0.00000  Uiso   1.00
C773   C     0.24943   0.06694   0.81807   0.00000  Uiso   1.00
C774   C     0.25158   0.26651   0.84868   0.00000  Uiso   1.00
O775   O     0.18936   0.17155   0.88524   0.00000  Uiso   1.00
O776   O     0.31065   0.16179   0.78143   0.00000  Uiso   1.00
O777   O     0.18090   0.16176   0.78143   0.00000  Uiso   1.00
O778   O     0.31910   0.17157   0.88523   0.00000  Uiso   1.00
C779   C     0.16454   0.16690   0.83428   0.00000  Uiso   1.00
C780   C     0.33535   0.16498   0.83246   0.00000  Uiso   1.00
Cu781  Cu    0.25501   0.17246   0.89479   0.00000  Uiso   1.00
Cu782  Cu    0.24500   0.16087   0.77187   0.00000  Uiso   1.00
C783   C     0.41047   0.20078   0.87563   0.00000  Uiso   1.00
C784   C     0.09037   0.11816   0.81137   0.00000  Uiso   1.00
C785   C     0.38398   0.16283   0.83248   0.00000  Uiso   1.00
C786   C     0.11578   0.16534   0.83789   0.00000  Uiso   1.00
C787   C     0.40385   0.11991   0.79728   0.00000  Uiso   1.00
C788   C     0.09666   0.20740   0.87570   0.00000  Uiso   1.00
C789   C     0.45014   0.11407   0.81065   0.00000  Uiso   1.00
C790   C     0.04993   0.20376   0.88182   0.00000  Uiso   1.00
C791   C     0.47684   0.15660   0.84644   0.00000  Uiso   1.00
C792   C     0.02399   0.15768   0.84911   0.00000  Uiso   1.00
C793   C     0.45647   0.19683   0.88280   0.00000  Uiso   1.00
C794   C     0.04421   0.11295   0.81935   0.00000  Uiso   1.00
C795   C     0.46976   0.06580   0.79832   0.00000  Uiso   1.00
C796   C     0.02697   0.24141   0.92190   0.00000  Uiso   1.00
C797   C     0.01707   0.06478   0.80279   0.00000  Uiso   1.00
C798   C     0.48262   0.23024   0.92922   0.00000  Uiso   1.00
C799   C     0.25033   0.01127   0.80986   0.00000  Uiso   1.00
C800   C     0.25236   0.32243   0.85727   0.00000  Uiso   1.00
H801   H     0.24933   0.32171   0.76401   0.00000  Uiso   1.00
H802   H     0.25431   0.01218   0.90333   0.00000  Uiso   1.00
N803   N     0.23745   0.15214   0.67951   0.00000  Uiso   1.00
N804   N     0.26256   0.18119   0.98716   0.00000  Uiso   1.00
I805   I     0.38291   0.27114   0.92019   0.00000  Uiso   1.00
I806   I     0.12471   0.05906   0.75561   0.00000  Uiso   1.00
C807   C     0.37794   0.08643   0.74052   0.00000  Uiso   1.00
C808   C     0.37824   0.11394   0.68761   0.00000  Uiso   1.00
C809   C     0.34555   0.08546   0.96791   0.00000  Uiso   1.00
H810   H     0.35029   0.04314   0.95744   0.00000  Uiso   1.00
H811   H     0.31061   0.09115   0.97887   0.00000  Uiso   1.00
H812   H     0.35156   0.10046   0.92713   0.00000  Uiso   1.00
H813   H     0.36963   0.15490   0.70165   0.00000  Uiso   1.00
H814   H     0.41249   0.11447   0.67240   0.00000  Uiso   1.00
H815   H     0.39316   0.04948   0.72389   0.00000  Uiso   1.00
H816   H     0.34339   0.07559   0.74976   0.00000  Uiso   1.00
C817   C     0.12768   0.25250   0.91283   0.00000  Uiso   1.00
C818   C     0.13732   0.24496   0.97783   0.00000  Uiso   1.00
C819   C     0.17800   0.27901   0.67734   0.00000  Uiso   1.00
H820   H     0.20888   0.26408   0.99196   0.00000  Uiso   1.00
H821   H     0.17590   0.31978   0.67223   0.00000  Uiso   1.00
H822   H     0.17968   0.27807   0.72603   0.00000  Uiso   1.00
H823   H     0.10809   0.25392   0.67068   0.00000  Uiso   1.00
H824   H     0.14365   0.20364   0.97735   0.00000  Uiso   1.00
H825   H     0.15962   0.25641   0.89259   0.00000  Uiso   1.00
H826   H     0.11495   0.29047   0.91062   0.00000  Uiso   1.00
I827   I     0.42883   0.33108   0.80338   0.00000  Uiso   1.00
I828   I     0.04334   0.32094   0.96664   0.00000  Uiso   1.00
I829   I     0.04366   0.32424   0.80597   0.00000  Uiso   1.00
I830   I     0.46830   0.22504   0.68446   0.00000  Uiso   1.00
I831   I     0.18904   0.09547   0.96595   0.00000  Uiso   1.00
I832   I     0.30942   0.23963   0.70077   0.00000  Uiso   1.00
O833   O     0.75326   0.09538   0.87326   0.00000  Uiso   1.00
O834   O     0.74675   0.23796   0.79341   0.00000  Uiso   1.00
O835   O     0.74480   0.08559   0.76945   0.00000  Uiso   1.00
O836   O     0.75520   0.24774   0.89721   0.00000  Uiso   1.00
C837   C     0.74943   0.06694   0.81807   0.00000  Uiso   1.00
C838   C     0.75158   0.26651   0.84868   0.00000  Uiso   1.00
O839   O     0.68936   0.17155   0.88524   0.00000  Uiso   1.00
O840   O     0.81065   0.16179   0.78143   0.00000  Uiso   1.00
O841   O     0.68090   0.16176   0.78143   0.00000  Uiso   1.00
O842   O     0.81910   0.17157   0.88523   0.00000  Uiso   1.00
C843   C     0.66454   0.16690   0.83428   0.00000  Uiso   1.00
C844   C     0.83535   0.16498   0.83246   0.00000  Uiso   1.00
Cu845  Cu    0.75501   0.17246   0.89479   0.00000  Uiso   1.00
Cu846  Cu    0.74500   0.16087   0.77187   0.00000  Uiso   1.00
C847   C     0.91047   0.20078   0.87563   0.00000  Uiso   1.00
C848   C     0.59037   0.11816   0.81137   0.00000  Uiso   1.00
C849   C     0.88398   0.16283   0.83248   0.00000  Uiso   1.00
C850   C     0.61578   0.16534   0.83789   0.00000  Uiso   1.00
C851   C     0.90385   0.11991   0.79728   0.00000  Uiso   1.00
C852   C     0.59666   0.20740   0.87570   0.00000  Uiso   1.00
C853   C     0.95014   0.11407   0.81065   0.00000  Uiso   1.00
C854   C     0.54993   0.20376   0.88182   0.00000  Uiso   1.00
C855   C     0.97684   0.15660   0.84644   0.00000  Uiso   1.00
C856   C     0.52399   0.15768   0.84911   0.00000  Uiso   1.00
C857   C     0.95647   0.19683   0.88280   0.00000  Uiso   1.00
C858   C     0.54421   0.11295   0.81935   0.00000  Uiso   1.00
C859   C     0.96976   0.06580   0.79832   0.00000  Uiso   1.00
C860   C     0.52697   0.24141   0.92190   0.00000  Uiso   1.00
C861   C     0.51707   0.06478   0.80279   0.00000  Uiso   1.00
C862   C     0.98262   0.23024   0.92922   0.00000  Uiso   1.00
C863   C     0.75033   0.01127   0.80986   0.00000  Uiso   1.00
C864   C     0.75236   0.32243   0.85727   0.00000  Uiso   1.00
H865   H     0.74933   0.32171   0.76401   0.00000  Uiso   1.00
H866   H     0.75431   0.01218   0.90333   0.00000  Uiso   1.00
N867   N     0.73745   0.15214   0.67951   0.00000  Uiso   1.00
N868   N     0.76256   0.18119   0.98716   0.00000  Uiso   1.00
I869   I     0.88291   0.27114   0.92019   0.00000  Uiso   1.00
I870   I     0.62471   0.05906   0.75561   0.00000  Uiso   1.00
C871   C     0.87794   0.08643   0.74052   0.00000  Uiso   1.00
C872   C     0.87824   0.11394   0.68761   0.00000  Uiso   1.00
C873   C     0.84555   0.08546   0.96791   0.00000  Uiso   1.00
H874   H     0.85029   0.04314   0.95744   0.00000  Uiso   1.00
H875   H     0.81061   0.09115   0.97887   0.00000  Uiso   1.00
H876   H     0.85156   0.10046   0.92713   0.00000  Uiso   1.00
H877   H     0.86963   0.15490   0.70165   0.00000  Uiso   1.00
H878   H     0.91249   0.11447   0.67240   0.00000  Uiso   1.00
H879   H     0.89316   0.04948   0.72389   0.00000  Uiso   1.00
H880   H     0.84339   0.07559   0.74976   0.00000  Uiso   1.00
C881   C     0.62768   0.25250   0.91283   0.00000  Uiso   1.00
C882   C     0.63732   0.24496   0.97783   0.00000  Uiso   1.00
C883   C     0.67800   0.27901   0.67734   0.00000  Uiso   1.00
H884   H     0.70888   0.26408   0.99196   0.00000  Uiso   1.00
H885   H     0.67590   0.31978   0.67223   0.00000  Uiso   1.00
H886   H     0.67968   0.27807   0.72603   0.00000  Uiso   1.00
H887   H     0.60809   0.25392   0.67068   0.00000  Uiso   1.00
H888   H     0.64365   0.20364   0.97735   0.00000  Uiso   1.00
H889   H     0.65962   0.25641   0.89259   0.00000  Uiso   1.00
H890   H     0.61495   0.29047   0.91062   0.00000  Uiso   1.00
I891   I     0.92883   0.33108   0.80338   0.00000  Uiso   1.00
I892   I     0.54334   0.32094   0.96664   0.00000  Uiso   1.00
I893   I     0.54366   0.32424   0.80597   0.00000  Uiso   1.00
I894   I     0.96830   0.22504   0.68446   0.00000  Uiso   1.00
I895   I     0.68904   0.09547   0.96595   0.00000  Uiso   1.00
I896   I     0.80942   0.23963   0.70077   0.00000  Uiso   1.00
O897   O     0.25326   0.42871   0.87326   0.00000  Uiso   1.00
O898   O     0.24675   0.57129   0.79341   0.00000  Uiso   1.00
O899   O     0.24480   0.41892   0.76945   0.00000  Uiso   1.00
O900   O     0.25520   0.58108   0.89721   0.00000  Uiso   1.00
C901   C     0.24943   0.40027   0.81807   0.00000  Uiso   1.00
C902   C     0.25158   0.59985   0.84868   0.00000  Uiso   1.00
O903   O     0.18936   0.50488   0.88524   0.00000  Uiso   1.00
O904   O     0.31065   0.49512   0.78143   0.00000  Uiso   1.00
O905   O     0.18090   0.49510   0.78143   0.00000  Uiso   1.00
O906   O     0.31910   0.50490   0.88523   0.00000  Uiso   1.00
C907   C     0.16454   0.50024   0.83428   0.00000  Uiso   1.00
C908   C     0.33535   0.49831   0.83246   0.00000  Uiso   1.00
Cu909  Cu    0.25501   0.50579   0.89479   0.00000  Uiso   1.00
Cu910  Cu    0.24500   0.49421   0.77187   0.00000  Uiso   1.00
C911   C     0.41047   0.53412   0.87563   0.00000  Uiso   1.00
C912   C     0.09037   0.45149   0.81137   0.00000  Uiso   1.00
C913   C     0.38398   0.49616   0.83248   0.00000  Uiso   1.00
C914   C     0.11578   0.49868   0.83789   0.00000  Uiso   1.00
C915   C     0.40385   0.45324   0.79728   0.00000  Uiso   1.00
C916   C     0.09666   0.54073   0.87570   0.00000  Uiso   1.00
C917   C     0.45014   0.44740   0.81065   0.00000  Uiso   1.00
C918   C     0.04993   0.53709   0.88182   0.00000  Uiso   1.00
C919   C     0.47684   0.48993   0.84644   0.00000  Uiso   1.00
C920   C     0.02399   0.49101   0.84911   0.00000  Uiso   1.00
C921   C     0.45647   0.53017   0.88280   0.00000  Uiso   1.00
C922   C     0.04421   0.44629   0.81935   0.00000  Uiso   1.00
C923   C     0.46976   0.39914   0.79832   0.00000  Uiso   1.00
C924   C     0.02697   0.57474   0.92190   0.00000  Uiso   1.00
C925   C     0.01707   0.39812   0.80279   0.00000  Uiso   1.00
C926   C     0.48262   0.56357   0.92922   0.00000  Uiso   1.00
C927   C     0.25033   0.34461   0.80986   0.00000  Uiso   1.00
C928   C     0.25236   0.65576   0.85727   0.00000  Uiso   1.00
H929   H     0.24933   0.65505   0.76401   0.00000  Uiso   1.00
H930   H     0.25431   0.34551   0.90333   0.00000  Uiso   1.00
N931   N     0.23745   0.48547   0.67951   0.00000  Uiso   1.00
N932   N     0.26256   0.51453   0.98716   0.00000  Uiso   1.00
I933   I     0.38291   0.60447   0.92019   0.00000  Uiso   1.00
I934   I     0.12471   0.39239   0.75561   0.00000  Uiso   1.00
C935   C     0.37794   0.41976   0.74052   0.00000  Uiso   1.00
C936   C     0.37824   0.44727   0.68761   0.00000  Uiso   1.00
C937   C     0.34555   0.41879   0.96791   0.00000  Uiso   1.00
H938   H     0.35029   0.37648   0.95744   0.00000  Uiso   1.00
H939   H     0.31061   0.42448   0.97887   0.00000  Uiso   1.00
H940   H     0.35156   0.43379   0.92713   0.00000  Uiso   1.00
H941   H     0.36963   0.48824   0.70165   0.00000  Uiso   1.00
H942   H     0.41249   0.44781   0.67240   0.00000  Uiso   1.00
H943   H     0.39316   0.38281   0.72389   0.00000  Uiso   1.00
H944   H     0.34339   0.40893   0.74976   0.00000  Uiso   1.00
C945   C     0.12768   0.58583   0.91283   0.00000  Uiso   1.00
C946   C     0.13732   0.57829   0.97783   0.00000  Uiso   1.00
C947   C     0.17800   0.61234   0.67734   0.00000  Uiso   1.00
H948   H     0.20888   0.59741   0.99196   0.00000  Uiso   1.00
H949   H     0.17590   0.65311   0.67223   0.00000  Uiso   1.00
H950   H     0.17968   0.61140   0.72603   0.00000  Uiso   1.00
H951   H     0.10809   0.58725   0.67068   0.00000  Uiso   1.00
H952   H     0.14365   0.53697   0.97735   0.00000  Uiso   1.00
H953   H     0.15962   0.58974   0.89259   0.00000  Uiso   1.00
H954   H     0.11495   0.62381   0.91062   0.00000  Uiso   1.00
I955   I     0.42883   0.66441   0.80338   0.00000  Uiso   1.00
I956   I     0.04334   0.65427   0.96664   0.00000  Uiso   1.00
I957   I     0.04366   0.65757   0.80597   0.00000  Uiso   1.00
I958   I     0.46830   0.55837   0.68446   0.00000  Uiso   1.00
I959   I     0.18904   0.42881   0.96595   0.00000  Uiso   1.00
I960   I     0.30942   0.57296   0.70077   0.00000  Uiso   1.00
O961   O     0.75326   0.42871   0.87326   0.00000  Uiso   1.00
O962   O     0.74675   0.57129   0.79341   0.00000  Uiso   1.00
O963   O     0.74480   0.41892   0.76945   0.00000  Uiso   1.00
O964   O     0.75520   0.58108   0.89721   0.00000  Uiso   1.00
C965   C     0.74943   0.40027   0.81807   0.00000  Uiso   1.00
C966   C     0.75158   0.59985   0.84868   0.00000  Uiso   1.00
O967   O     0.68936   0.50488   0.88524   0.00000  Uiso   1.00
O968   O     0.81065   0.49512   0.78143   0.00000  Uiso   1.00
O969   O     0.68090   0.49510   0.78143   0.00000  Uiso   1.00
O970   O     0.81910   0.50490   0.88523   0.00000  Uiso   1.00
C971   C     0.66454   0.50024   0.83428   0.00000  Uiso   1.00
C972   C     0.83535   0.49831   0.83246   0.00000  Uiso   1.00
Cu973  Cu    0.75501   0.50579   0.89479   0.00000  Uiso   1.00
Cu974  Cu    0.74500   0.49421   0.77187   0.00000  Uiso   1.00
C975   C     0.91047   0.53412   0.87563   0.00000  Uiso   1.00
C976   C     0.59037   0.45149   0.81137   0.00000  Uiso   1.00
C977   C     0.88398   0.49616   0.83248   0.00000  Uiso   1.00
C978   C     0.61578   0.49868   0.83789   0.00000  Uiso   1.00
C979   C     0.90385   0.45324   0.79728   0.00000  Uiso   1.00
C980   C     0.59666   0.54073   0.87570   0.00000  Uiso   1.00
C981   C     0.95014   0.44740   0.81065   0.00000  Uiso   1.00
C982   C     0.54993   0.53709   0.88182   0.00000  Uiso   1.00
C983   C     0.97684   0.48993   0.84644   0.00000  Uiso   1.00
C984   C     0.52399   0.49101   0.84911   0.00000  Uiso   1.00
C985   C     0.95647   0.53017   0.88280   0.00000  Uiso   1.00
C986   C     0.54421   0.44629   0.81935   0.00000  Uiso   1.00
C987   C     0.96976   0.39914   0.79832   0.00000  Uiso   1.00
C988   C     0.52697   0.57474   0.92190   0.00000  Uiso   1.00
C989   C     0.51707   0.39812   0.80279   0.00000  Uiso   1.00
C990   C     0.98262   0.56357   0.92922   0.00000  Uiso   1.00
C991   C     0.75033   0.34461   0.80986   0.00000  Uiso   1.00
C992   C     0.75236   0.65576   0.85727   0.00000  Uiso   1.00
H993   H     0.74933   0.65505   0.76401   0.00000  Uiso   1.00
H994   H     0.75431   0.34551   0.90333   0.00000  Uiso   1.00
N995   N     0.73745   0.48547   0.67951   0.00000  Uiso   1.00
N996   N     0.76256   0.51453   0.98716   0.00000  Uiso   1.00
I997   I     0.88291   0.60447   0.92019   0.00000  Uiso   1.00
I998   I     0.62471   0.39239   0.75561   0.00000  Uiso   1.00
C999   C     0.87794   0.41976   0.74052   0.00000  Uiso   1.00
C1000  C     0.87824   0.44727   0.68761   0.00000  Uiso   1.00
C1001  C     0.84555   0.41879   0.96791   0.00000  Uiso   1.00
H1002  H     0.85029   0.37648   0.95744   0.00000  Uiso   1.00
H1003  H     0.81061   0.42448   0.97887   0.00000  Uiso   1.00
H1004  H     0.85156   0.43379   0.92713   0.00000  Uiso   1.00
H1005  H     0.86963   0.48824   0.70165   0.00000  Uiso   1.00
H1006  H     0.91249   0.44781   0.67240   0.00000  Uiso   1.00
H1007  H     0.89316   0.38281   0.72389   0.00000  Uiso   1.00
H1008  H     0.84339   0.40893   0.74976   0.00000  Uiso   1.00
C1009  C     0.62768   0.58583   0.91283   0.00000  Uiso   1.00
C1010  C     0.63732   0.57829   0.97783   0.00000  Uiso   1.00
C1011  C     0.67800   0.61234   0.67734   0.00000  Uiso   1.00
H1012  H     0.70888   0.59741   0.99196   0.00000  Uiso   1.00
H1013  H     0.67590   0.65311   0.67223   0.00000  Uiso   1.00
H1014  H     0.67968   0.61140   0.72603   0.00000  Uiso   1.00
H1015  H     0.60809   0.58725   0.67068   0.00000  Uiso   1.00
H1016  H     0.64365   0.53697   0.97735   0.00000  Uiso   1.00
H1017  H     0.65962   0.58974   0.89259   0.00000  Uiso   1.00
H1018  H     0.61495   0.62381   0.91062   0.00000  Uiso   1.00
I1019  I     0.92883   0.66441   0.80338   0.00000  Uiso   1.00
I1020  I     0.54334   0.65427   0.96664   0.00000  Uiso   1.00
I1021  I     0.54366   0.65757   0.80597   0.00000  Uiso   1.00
I1022  I     0.96830   0.55837   0.68446   0.00000  Uiso   1.00
I1023  I     0.68904   0.42881   0.96595   0.00000  Uiso   1.00
I1024  I     0.80942   0.57296   0.70077   0.00000  Uiso   1.00
O1025  O     0.25326   0.76204   0.87326   0.00000  Uiso   1.00
O1026  O     0.24675   0.90462   0.79341   0.00000  Uiso   1.00
O1027  O     0.24480   0.75226   0.76945   0.00000  Uiso   1.00
O1028  O     0.25520   0.91441   0.89721   0.00000  Uiso   1.00
C1029  C     0.24943   0.73360   0.81807   0.00000  Uiso   1.00
C1030  C     0.25158   0.93318   0.84868   0.00000  Uiso   1.00
O1031  O     0.18936   0.83821   0.88524   0.00000  Uiso   1.00
O1032  O     0.31065   0.82845   0.78143   0.00000  Uiso   1.00
O1033  O     0.18090   0.82843   0.78143   0.00000  Uiso   1.00
O1034  O     0.31910   0.83824   0.88523   0.00000  Uiso   1.00
C1035  C     0.16454   0.83357   0.83428   0.00000  Uiso   1.00
C1036  C     0.33535   0.83165   0.83246   0.00000  Uiso   1.00
Cu1037 Cu    0.25501   0.83913   0.89479   0.00000  Uiso   1.00
Cu1038 Cu    0.24500   0.82754   0.77187   0.00000  Uiso   1.00
C1039  C     0.41047   0.86745   0.87563   0.00000  Uiso   1.00
C1040  C     0.09037   0.78482   0.81137   0.00000  Uiso   1.00
C1041  C     0.38398   0.82949   0.83248   0.00000  Uiso   1.00
C1042  C     0.11578   0.83201   0.83789   0.00000  Uiso   1.00
C1043  C     0.40385   0.78657   0.79728   0.00000  Uiso   1.00
C1044  C     0.09666   0.87407   0.87570   0.00000  Uiso   1.00
C1045  C     0.45014   0.78073   0.81065   0.00000  Uiso   1.00
C1046  C     0.04993   0.87042   0.88182   0.00000  Uiso   1.00
C1047  C     0.47684   0.82326   0.84644   0.00000  Uiso   1.00
C1048  C     0.02399   0.82435   0.84911   0.00000  Uiso   1.00
C1049  C     0.45647   0.86350   0.88280   0.00000  Uiso   1.00
C1050  C     0.04421   0.77962   0.81935   0.00000  Uiso   1.00
C1051  C     0.46976   0.73247   0.79832   0.00000  Uiso   1.00
C1052  C     0.02697   0.90807   0.92190   0.00000  Uiso   1.00
C1053  C     0.01707   0.73145   0.80279   0.00000  Uiso   1.00
C1054  C     0.48262   0.89690   0.92922   0.00000  Uiso   1.00
C1055  C     0.25033   0.67794   0.80986   0.00000  Uiso   1.00
C1056  C     0.25236   0.98910   0.85727   0.00000  Uiso   1.00
H1057  H     0.24933   0.98838   0.76401   0.00000  Uiso   1.00
H1058  H     0.25431   0.67885   0.90333   0.00000  Uiso   1.00
N1059  N     0.23745   0.81881   0.67951   0.00000  Uiso   1.00
N1060  N     0.26256   0.84786   0.98716   0.00000  Uiso   1.00
I1061  I     0.38291   0.93780   0.92019   0.00000  Uiso   1.00
I1062  I     0.12471   0.72572   0.75561   0.00000  Uiso   1.00
C1063  C     0.37794   0.75309   0.74052   0.00000  Uiso   1.00
C1064  C     0.37824   0.78060   0.68761   0.00000  Uiso   1.00
C1065  C     0.34555   0.75212   0.96791   0.00000  Uiso   1.00
H1066  H     0.35029   0.70981   0.95744   0.00000  Uiso   1.00
H1067  H     0.31061   0.75781   0.97887   0.00000  Uiso   1.00
H1068  H     0.35156   0.76712   0.92713   0.00000  Uiso   1.00
H1069  H     0.36963   0.82157   0.70165   0.00000  Uiso   1.00
H1070  H     0.41249   0.78114   0.67240   0.00000  Uiso   1.00
H1071  H     0.39316   0.71615   0.72389   0.00000  Uiso   1.00
H1072  H     0.34339   0.74226   0.74976   0.00000  Uiso   1.00
C1073  C     0.12768   0.91916   0.91283   0.00000  Uiso   1.00
C1074  C     0.13732   0.91162   0.97783   0.00000  Uiso   1.00
C1075  C     0.17800   0.94568   0.67734   0.00000  Uiso   1.00
H1076  H     0.20888   0.93074   0.99196   0.00000  Uiso   1.00
H1077  H     0.17590   0.98645   0.67223   0.00000  Uiso   1.00
H1078  H     0.17968   0.94474   0.72603   0.00000  Uiso   1.00
H1079  H     0.10809   0.92058   0.67068   0.00000  Uiso   1.00
H1080  H     0.14365   0.87030   0.97735   0.00000  Uiso   1.00
H1081  H     0.15962   0.92307   0.89259   0.00000  Uiso   1.00
H1082  H     0.11495   0.95714   0.91062   0.00000  Uiso   1.00
I1083  I     0.42883   0.99774   0.80338   0.00000  Uiso   1.00
I1084  I     0.04334   0.98761   0.96664   0.00000  Uiso   1.00
I1085  I     0.04366   0.99091   0.80597   0.00000  Uiso   1.00
I1086  I     0.46830   0.89170   0.68446   0.00000  Uiso   1.00
I1087  I     0.18904   0.76214   0.96595   0.00000  Uiso   1.00
I1088  I     0.30942   0.90629   0.70077   0.00000  Uiso   1.00
O1089  O     0.75326   0.76204   0.87326   0.00000  Uiso   1.00
O1090  O     0.74675   0.90462   0.79341   0.00000  Uiso   1.00
O1091  O     0.74480   0.75226   0.76945   0.00000  Uiso   1.00
O1092  O     0.75520   0.91441   0.89721   0.00000  Uiso   1.00
C1093  C     0.74943   0.73360   0.81807   0.00000  Uiso   1.00
C1094  C     0.75158   0.93318   0.84868   0.00000  Uiso   1.00
O1095  O     0.68936   0.83821   0.88524   0.00000  Uiso   1.00
O1096  O     0.81065   0.82845   0.78143   0.00000  Uiso   1.00
O1097  O     0.68090   0.82843   0.78143   0.00000  Uiso   1.00
O1098  O     0.81910   0.83824   0.88523   0.00000  Uiso   1.00
C1099  C     0.66454   0.83357   0.83428   0.00000  Uiso   1.00
C1100  C     0.83535   0.83165   0.83246   0.00000  Uiso   1.00
Cu1101 Cu    0.75501   0.83913   0.89479   0.00000  Uiso   1.00
Cu1102 Cu    0.74500   0.82754   0.77187   0.00000  Uiso   1.00
C1103  C     0.91047   0.86745   0.87563   0.00000  Uiso   1.00
C1104  C     0.59037   0.78482   0.81137   0.00000  Uiso   1.00
C1105  C     0.88398   0.82949   0.83248   0.00000  Uiso   1.00
C1106  C     0.61578   0.83201   0.83789   0.00000  Uiso   1.00
C1107  C     0.90385   0.78657   0.79728   0.00000  Uiso   1.00
C1108  C     0.59666   0.87407   0.87570   0.00000  Uiso   1.00
C1109  C     0.95014   0.78073   0.81065   0.00000  Uiso   1.00
C1110  C     0.54993   0.87042   0.88182   0.00000  Uiso   1.00
C1111  C     0.97684   0.82326   0.84644   0.00000  Uiso   1.00
C1112  C     0.52399   0.82435   0.84911   0.00000  Uiso   1.00
C1113  C     0.95647   0.86350   0.88280   0.00000  Uiso   1.00
C1114  C     0.54421   0.77962   0.81935   0.00000  Uiso   1.00
C1115  C     0.96976   0.73247   0.79832   0.00000  Uiso   1.00
C1116  C     0.52697   0.90807   0.92190   0.00000  Uiso   1.00
C1117  C     0.51707   0.73145   0.80279   0.00000  Uiso   1.00
C1118  C     0.98262   0.89690   0.92922   0.00000  Uiso   1.00
C1119  C     0.75033   0.67794   0.80986   0.00000  Uiso   1.00
C1120  C     0.75236   0.98910   0.85727   0.00000  Uiso   1.00
H1121  H     0.74933   0.98838   0.76401   0.00000  Uiso   1.00
H1122  H     0.75431   0.67885   0.90333   0.00000  Uiso   1.00
N1123  N     0.73745   0.81881   0.67951   0.00000  Uiso   1.00
N1124  N     0.76256   0.84786   0.98716   0.00000  Uiso   1.00
I1125  I     0.88291   0.93780   0.92019   0.00000  Uiso   1.00
I1126  I     0.62471   0.72572   0.75561   0.00000  Uiso   1.00
C1127  C     0.87794   0.75309   0.74052   0.00000  Uiso   1.00
C1128  C     0.87824   0.78060   0.68761   0.00000  Uiso   1.00
C1129  C     0.84555   0.75212   0.96791   0.00000  Uiso   1.00
H1130  H     0.85029   0.70981   0.95744   0.00000  Uiso   1.00
H1131  H     0.81061   0.75781   0.97887   0.00000  Uiso   1.00
H1132  H     0.85156   0.76712   0.92713   0.00000  Uiso   1.00
H1133  H     0.86963   0.82157   0.70165   0.00000  Uiso   1.00
H1134  H     0.91249   0.78114   0.67240   0.00000  Uiso   1.00
H1135  H     0.89316   0.71615   0.72389   0.00000  Uiso   1.00
H1136  H     0.84339   0.74226   0.74976   0.00000  Uiso   1.00
C1137  C     0.62768   0.91916   0.91283   0.00000  Uiso   1.00
C1138  C     0.63732   0.91162   0.97783   0.00000  Uiso   1.00
C1139  C     0.67800   0.94568   0.67734   0.00000  Uiso   1.00
H1140  H     0.70888   0.93074   0.99196   0.00000  Uiso   1.00
H1141  H     0.67590   0.98645   0.67223   0.00000  Uiso   1.00
H1142  H     0.67968   0.94474   0.72603   0.00000  Uiso   1.00
H1143  H     0.60809   0.92058   0.67068   0.00000  Uiso   1.00
H1144  H     0.64365   0.87030   0.97735   0.00000  Uiso   1.00
H1145  H     0.65962   0.92307   0.89259   0.00000  Uiso   1.00
H1146  H     0.61495   0.95714   0.91062   0.00000  Uiso   1.00
I1147  I     0.92883   0.99774   0.80338   0.00000  Uiso   1.00
I1148  I     0.54334   0.98761   0.96664   0.00000  Uiso   1.00
I1149  I     0.54366   0.99091   0.80597   0.00000  Uiso   1.00
I1150  I     0.96830   0.89170   0.68446   0.00000  Uiso   1.00
I1151  I     0.68904   0.76214   0.96595   0.00000  Uiso   1.00
I1152  I     0.80942   0.90629   0.70077   0.00000  Uiso   1.00
loop_
_geom_bond_atom_site_label_1
_geom_bond_atom_site_label_2
_geom_bond_distance
_geom_bond_site_symmetry_2
_ccdc_geom_bond_type
O1     C5      1.307   .     A
O1     Cu13    1.977   .     S
O2     C6      1.310   .     A
O2     Cu14    1.977   .     S
O3     Cu14    1.968   .     S
O3     C5      1.303   .     A
O4     C6      1.301   .     A
O4     Cu13    1.968   .     S
C5     C31     1.437   .     S
C6     C32     1.440   .     S
O7     Cu13    1.967   .     S
O7     C11     1.306   .     A
O8     C12     1.311   .     A
O8     Cu14    1.967   .     S
O9     C11     1.317   .     A
O9     Cu14    1.957   .     S
O10    Cu13    1.957   .     S
O10    C12     1.311   .     A
C11    C18     1.474   .     S
C12    C17     1.466   .     S
Cu13   Cu14    2.734   .     S
Cu13   N36     2.055   .     S
Cu14   N35     2.055   .     S
C15    C25     1.392   .     A
C15    C17     1.401   .     A
C15    I37     2.149   .     S
C16    C26     1.417   .     A
C16    C18     1.412   .     A
C16    I38     2.148   .     S
C17    C19     1.424   .     A
C18    C20     1.424   .     A
C19    C39     1.525   .     S
C19    C21     1.424   .     A
C20    C49     1.522   .     S
C20    C22     1.423   .     A
C21    C27     1.410   .     A
C21    C23     1.403   .     A
C22    C24     1.432   .     A
C22    C28     1.438   .     A
C23    C25     1.396   .     A
C23    C88     1.413   .     S
C24    C26     1.416   .     A
C24    C87     1.413   1_455 S
C25    C30     1.378   .     A
C26    C29     1.432   .     A
C27    C93     1.420   .     S
C27    I315    2.148   1_545 S
C28    I60     2.132   .     S
C28    C94     1.381   1_455 S
C29    C91     1.420   1_455 S
C29    I317    2.152   1_545 S
C30    C92     1.381   .     S
C30    I446    2.123   .     S
C31    C288    1.330   1_545 S
C31    H289    1.083   1_545 S
C32    C159    1.330   .     S
C32    H162    1.086   .     S
H33    C159    1.083   .     S
H34    C288    1.086   1_545 S
N35    N804    1.303   1_554 S
N35    I831    2.078   1_554 S
N36    N419    1.303   .     S
N36    I448    2.077   .     S
C39    C40     1.532   .     S
C39    H47     1.101   .     S
C39    H48     1.111   .     S
C40    H46     1.112   .     S
C40    H45     1.106   .     S
C40    C809    1.525   1_554 S
C41    H43     1.109   .     S
C41    H42     1.106   .     S
C41    H44     1.107   .     S
C41    C424    1.525   .     S
C49    H57     1.107   .     S
C49    C50     1.539   .     S
C49    H58     1.097   .     S
C50    H56     1.111   .     S
C50    C435    1.519   .     S
C50    H439    1.107   .     S
C51    H54     1.109   .     S
C51    H53     1.107   .     S
C51    C818    1.519   1_554 S
C51    H820    1.107   1_554 S
H52    C435    1.107   .     S
H55    C818    1.107   1_554 S
I59    C155    2.148   .     S
I61    C157    2.152   .     S
I62    C798    2.123   1_554 S
I63    N419    2.078   .     S
I64    N804    2.077   1_554 S
O65    C69     1.307   .     A
O65    Cu77    1.977   .     S
O66    C70     1.310   .     A
O66    Cu78    1.977   .     S
O67    Cu78    1.968   .     S
O67    C69     1.303   .     A
O68    C70     1.301   .     A
O68    Cu77    1.968   .     S
C69    C95     1.437   .     S
C70    C96     1.440   .     S
O71    Cu77    1.967   .     S
O71    C75     1.306   .     A
O72    C76     1.311   .     A
O72    Cu78    1.967   .     S
O73    C75     1.317   .     A
O73    Cu78    1.957   .     S
O74    Cu77    1.957   .     S
O74    C76     1.311   .     A
C75    C82     1.474   .     S
C76    C81     1.466   .     S
Cu77   Cu78    2.734   .     S
Cu77   N100    2.055   .     S
Cu78   N99     2.055   .     S
C79    C89     1.392   .     A
C79    C81     1.401   .     A
C79    I101    2.149   .     S
C80    C90     1.417   .     A
C80    C82     1.412   .     A
C80    I102    2.148   .     S
C81    C83     1.424   .     A
C82    C84     1.424   .     A
C83    C103    1.525   .     S
C83    C85     1.424   .     A
C84    C113    1.522   .     S
C84    C86     1.423   .     A
C85    C91     1.410   .     A
C85    C87     1.403   .     A
C86    C88     1.432   .     A
C86    C92     1.438   .     A
C87    C89     1.396   .     A
C87    C24     1.413   1_655 S
C88    C90     1.416   .     A
C89    C94     1.378   .     A
C90    C93     1.432   .     A
C91    C29     1.420   1_655 S
C91    I379    2.148   1_545 S
C92    I124    2.132   .     S
C93    I381    2.152   1_545 S
C94    C28     1.381   1_655 S
C94    I510    2.123   .     S
C95    C352    1.330   1_545 S
C95    H353    1.083   1_545 S
C96    C223    1.330   .     S
C96    H226    1.086   .     S
H97    C223    1.083   .     S
H98    C352    1.086   1_545 S
N99    N868    1.303   1_554 S
N99    I895    2.078   1_554 S
N100   N483    1.303   .     S
N100   I512    2.077   .     S
C103   C104    1.532   .     S
C103   H111    1.101   .     S
C103   H112    1.111   .     S
C104   H110    1.112   .     S
C104   H109    1.106   .     S
C104   C873    1.525   1_554 S
C105   H107    1.109   .     S
C105   H106    1.106   .     S
C105   H108    1.107   .     S
C105   C488    1.525   .     S
C113   H121    1.107   .     S
C113   C114    1.539   .     S
C113   H122    1.097   .     S
C114   H120    1.111   .     S
C114   C499    1.519   .     S
C114   H503    1.107   .     S
C115   H118    1.109   .     S
C115   H117    1.107   .     S
C115   C882    1.519   1_554 S
C115   H884    1.107   1_554 S
H116   C499    1.107   .     S
H119   C882    1.107   1_554 S
I123   C219    2.148   .     S
I125   C221    2.152   .     S
I126   C862    2.123   1_554 S
I127   N483    2.078   .     S
I128   N868    2.077   1_554 S
O129   C133    1.307   .     A
O129   Cu141   1.977   .     S
O130   C134    1.310   .     A
O130   Cu142   1.977   .     S
O131   Cu142   1.968   .     S
O131   C133    1.303   .     A
O132   C134    1.301   .     A
O132   Cu141   1.968   .     S
C133   C159    1.437   .     S
C134   C160    1.440   .     S
O135   Cu141   1.967   .     S
O135   C139    1.306   .     A
O136   C140    1.311   .     A
O136   Cu142   1.967   .     S
O137   C139    1.317   .     A
O137   Cu142   1.957   .     S
O138   Cu141   1.957   .     S
O138   C140    1.311   .     A
C139   C146    1.474   .     S
C140   C145    1.466   .     S
Cu141  Cu142   2.734   .     S
Cu141  N164    2.055   .     S
Cu142  N163    2.055   .     S
C143   C153    1.392   .     A
C143   C145    1.401   .     A
C143   I165    2.149   .     S
C144   C154    1.417   .     A
C144   C146    1.412   .     A
C144   I166    2.148   .     S
C145   C147    1.424   .     A
C146   C148    1.424   .     A
C147   C167    1.525   .     S
C147   C149    1.424   .     A
C148   C177    1.522   .     S
C148   C150    1.423   .     A
C149   C155    1.410   .     A
C149   C151    1.403   .     A
C150   C152    1.432   .     A
C150   C156    1.438   .     A
C151   C153    1.396   .     A
C151   C216    1.413   .     S
C152   C154    1.416   .     A
C152   C215    1.413   1_455 S
C153   C158    1.378   .     A
C154   C157    1.432   .     A
C155   C221    1.420   .     S
C156   I188    2.132   .     S
C156   C222    1.381   1_455 S
C157   C219    1.420   1_455 S
C158   C220    1.381   .     S
C158   I574    2.123   .     S
C160   C287    1.330   .     S
C160   H290    1.086   .     S
H161   C287    1.083   .     S
N163   N932    1.303   1_554 S
N163   I959    2.078   1_554 S
N164   N547    1.303   .     S
N164   I576    2.077   .     S
C167   C168    1.532   .     S
C167   H175    1.101   .     S
C167   H176    1.111   .     S
C168   H174    1.112   .     S
C168   H173    1.106   .     S
C168   C937    1.525   1_554 S
C169   H171    1.109   .     S
C169   H170    1.106   .     S
C169   H172    1.107   .     S
C169   C552    1.525   .     S
C177   H185    1.107   .     S
C177   C178    1.539   .     S
C177   H186    1.097   .     S
C178   H184    1.111   .     S
C178   C563    1.519   .     S
C178   H567    1.107   .     S
C179   H182    1.109   .     S
C179   H181    1.107   .     S
C179   C946    1.519   1_554 S
C179   H948    1.107   1_554 S
H180   C563    1.107   .     S
H183   C946    1.107   1_554 S
I187   C283    2.148   .     S
I189   C285    2.152   .     S
I190   C926    2.123   1_554 S
I191   N547    2.078   .     S
I192   N932    2.077   1_554 S
O193   C197    1.307   .     A
O193   Cu205   1.977   .     S
O194   C198    1.310   .     A
O194   Cu206   1.977   .     S
O195   Cu206   1.968   .     S
O195   C197    1.303   .     A
O196   C198    1.301   .     A
O196   Cu205   1.968   .     S
C197   C223    1.437   .     S
C198   C224    1.440   .     S
O199   Cu205   1.967   .     S
O199   C203    1.306   .     A
O200   C204    1.311   .     A
O200   Cu206   1.967   .     S
O201   C203    1.317   .     A
O201   Cu206   1.957   .     S
O202   Cu205   1.957   .     S
O202   C204    1.311   .     A
C203   C210    1.474   .     S
C204   C209    1.466   .     S
Cu205  Cu206   2.734   .     S
Cu205  N228    2.055   .     S
Cu206  N227    2.055   .     S
C207   C217    1.392   .     A
C207   C209    1.401   .     A
C207   I229    2.149   .     S
C208   C218    1.417   .     A
C208   C210    1.412   .     A
C208   I230    2.148   .     S
C209   C211    1.424   .     A
C210   C212    1.424   .     A
C211   C231    1.525   .     S
C211   C213    1.424   .     A
C212   C241    1.522   .     S
C212   C214    1.423   .     A
C213   C219    1.410   .     A
C213   C215    1.403   .     A
C214   C216    1.432   .     A
C214   C220    1.438   .     A
C215   C217    1.396   .     A
C215   C152    1.413   1_655 S
C216   C218    1.416   .     A
C217   C222    1.378   .     A
C218   C221    1.432   .     A
C219   C157    1.420   1_655 S
C220   I252    2.132   .     S
C222   C156    1.381   1_655 S
C222   I638    2.123   .     S
C224   C351    1.330   .     S
C224   H354    1.086   .     S
H225   C351    1.083   .     S
N227   N996    1.303   1_554 S
N227   I1023   2.078   1_554 S
N228   N611    1.303   .     S
N228   I640    2.077   .     S
C231   C232    1.532   .     S
C231   H239    1.101   .     S
C231   H240    1.111   .     S
C232   H238    1.112   .     S
C232   H237    1.106   .     S
C232   C1001   1.525   1_554 S
C233   H235    1.109   .     S
C233   H234    1.106   .     S
C233   H236    1.107   .     S
C233   C616    1.525   .     S
C241   H249    1.107   .     S
C241   C242    1.539   .     S
C241   H250    1.097   .     S
C242   H248    1.111   .     S
C242   C627    1.519   .     S
C242   H631    1.107   .     S
C243   H246    1.109   .     S
C243   H245    1.107   .     S
C243   C1010   1.519   1_554 S
C243   H1012   1.107   1_554 S
H244   C627    1.107   .     S
H247   C1010   1.107   1_554 S
I251   C347    2.148   .     S
I253   C349    2.152   .     S
I254   C990    2.123   1_554 S
I255   N611    2.078   .     S
I256   N996    2.077   1_554 S
O257   C261    1.307   .     A
O257   Cu269   1.977   .     S
O258   C262    1.310   .     A
O258   Cu270   1.977   .     S
O259   Cu270   1.968   .     S
O259   C261    1.303   .     A
O260   C262    1.301   .     A
O260   Cu269   1.968   .     S
C261   C287    1.437   .     S
C262   C288    1.440   .     S
O263   Cu269   1.967   .     S
O263   C267    1.306   .     A
O264   C268    1.311   .     A
O264   Cu270   1.967   .     S
O265   C267    1.317   .     A
O265   Cu270   1.957   .     S
O266   Cu269   1.957   .     S
O266   C268    1.311   .     A
C267   C274    1.474   .     S
C268   C273    1.466   .     S
Cu269  Cu270   2.734   .     S
Cu269  N292    2.055   .     S
Cu270  N291    2.055   .     S
C271   C281    1.392   .     A
C271   C273    1.401   .     A
C271   I293    2.149   .     S
C272   C282    1.417   .     A
C272   C274    1.412   .     A
C272   I294    2.148   .     S
C273   C275    1.424   .     A
C274   C276    1.424   .     A
C275   C295    1.525   .     S
C275   C277    1.424   .     A
C276   C305    1.522   .     S
C276   C278    1.423   .     A
C277   C283    1.410   .     A
C277   C279    1.403   .     A
C278   C280    1.432   .     A
C278   C284    1.438   .     A
C279   C281    1.396   .     A
C279   C344    1.413   .     S
C280   C282    1.416   .     A
C280   C343    1.413   1_455 S
C281   C286    1.378   .     A
C282   C285    1.432   .     A
C283   C349    1.420   .     S
C284   I316    2.132   .     S
C284   C350    1.381   1_455 S
C285   C347    1.420   1_455 S
C286   C348    1.381   .     S
C286   I702    2.123   .     S
C288   C31     1.330   1_565 S
C288   H34     1.086   1_565 S
H289   C31     1.083   1_565 S
N291   N1060   1.303   1_554 S
N291   I1087   2.078   1_554 S
N292   N675    1.303   .     S
N292   I704    2.077   .     S
C295   C296    1.532   .     S
C295   H303    1.101   .     S
C295   H304    1.111   .     S
C296   H302    1.112   .     S
C296   H301    1.106   .     S
C296   C1065   1.525   1_554 S
C297   H299    1.109   .     S
C297   H298    1.106   .     S
C297   H300    1.107   .     S
C297   C680    1.525   .     S
C305   H313    1.107   .     S
C305   C306    1.539   .     S
C305   H314    1.097   .     S
C306   H312    1.111   .     S
C306   C691    1.519   .     S
C306   H695    1.107   .     S
C307   H310    1.109   .     S
C307   H309    1.107   .     S
C307   C1074   1.519   1_554 S
C307   H1076   1.107   1_554 S
H308   C691    1.107   .     S
H311   C1074   1.107   1_554 S
I315   C27     2.148   1_565 S
I317   C29     2.152   1_565 S
I318   C1054   2.123   1_554 S
I319   N675    2.078   .     S
I320   N1060   2.077   1_554 S
O321   C325    1.307   .     A
O321   Cu333   1.977   .     S
O322   C326    1.310   .     A
O322   Cu334   1.977   .     S
O323   Cu334   1.968   .     S
O323   C325    1.303   .     A
O324   C326    1.301   .     A
O324   Cu333   1.968   .     S
C325   C351    1.437   .     S
C326   C352    1.440   .     S
O327   Cu333   1.967   .     S
O327   C331    1.306   .     A
O328   C332    1.311   .     A
O328   Cu334   1.967   .     S
O329   C331    1.317   .     A
O329   Cu334   1.957   .     S
O330   Cu333   1.957   .     S
O330   C332    1.311   .     A
C331   C338    1.474   .     S
C332   C337    1.466   .     S
Cu333  Cu334   2.734   .     S
Cu333  N356    2.055   .     S
Cu334  N355    2.055   .     S
C335   C345    1.392   .     A
C335   C337    1.401   .     A
C335   I357    2.149   .     S
C336   C346    1.417   .     A
C336   C338    1.412   .     A
C336   I358    2.148   .     S
C337   C339    1.424   .     A
C338   C340    1.424   .     A
C339   C359    1.525   .     S
C339   C341    1.424   .     A
C340   C369    1.522   .     S
C340   C342    1.423   .     A
C341   C347    1.410   .     A
C341   C343    1.403   .     A
C342   C344    1.432   .     A
C342   C348    1.438   .     A
C343   C345    1.396   .     A
C343   C280    1.413   1_655 S
C344   C346    1.416   .     A
C345   C350    1.378   .     A
C346   C349    1.432   .     A
C347   C285    1.420   1_655 S
C348   I380    2.132   .     S
C350   C284    1.381   1_655 S
C350   I766    2.123   .     S
C352   C95     1.330   1_565 S
C352   H98     1.086   1_565 S
H353   C95     1.083   1_565 S
N355   N1124   1.303   1_554 S
N355   I1151   2.078   1_554 S
N356   N739    1.303   .     S
N356   I768    2.077   .     S
C359   C360    1.532   .     S
C359   H367    1.101   .     S
C359   H368    1.111   .     S
C360   H366    1.112   .     S
C360   H365    1.106   .     S
C360   C1129   1.525   1_554 S
C361   H363    1.109   .     S
C361   H362    1.106   .     S
C361   H364    1.107   .     S
C361   C744    1.525   .     S
C369   H377    1.107   .     S
C369   C370    1.539   .     S
C369   H378    1.097   .     S
C370   H376    1.111   .     S
C370   C755    1.519   .     S
C370   H759    1.107   .     S
C371   H374    1.109   .     S
C371   H373    1.107   .     S
C371   C1138   1.519   1_554 S
C371   H1140   1.107   1_554 S
H372   C755    1.107   .     S
H375   C1138   1.107   1_554 S
I379   C91     2.148   1_565 S
I381   C93     2.152   1_565 S
I382   C1118   2.123   1_554 S
I383   N739    2.078   .     S
I384   N1124   2.077   1_554 S
O385   C389    1.307   .     A
O385   Cu397   1.977   .     S
O386   C390    1.310   .     A
O386   Cu398   1.977   .     S
O387   Cu398   1.968   .     S
O387   C389    1.303   .     A
O388   C390    1.301   .     A
O388   Cu397   1.968   .     S
C389   C415    1.437   .     S
C390   C416    1.440   .     S
O391   Cu397   1.967   .     S
O391   C395    1.306   .     A
O392   C396    1.311   .     A
O392   Cu398   1.967   .     S
O393   C395    1.317   .     A
O393   Cu398   1.957   .     S
O394   Cu397   1.957   .     S
O394   C396    1.311   .     A
C395   C402    1.474   .     S
C396   C401    1.466   .     S
Cu397  Cu398   2.734   .     S
Cu397  N420    2.055   .     S
Cu398  N419    2.055   .     S
C399   C409    1.392   .     A
C399   C401    1.401   .     A
C399   I421    2.149   .     S
C400   C410    1.417   .     A
C400   C402    1.412   .     A
C400   I422    2.148   .     S
C401   C403    1.424   .     A
C402   C404    1.424   .     A
C403   C423    1.525   .     S
C403   C405    1.424   .     A
C404   C433    1.522   .     S
C404   C406    1.423   .     A
C405   C411    1.410   .     A
C405   C407    1.403   .     A
C406   C408    1.432   .     A
C406   C412    1.438   .     A
C407   C409    1.396   .     A
C407   C472    1.413   .     S
C408   C410    1.416   .     A
C408   C471    1.413   1_455 S
C409   C414    1.378   .     A
C410   C413    1.432   .     A
C411   C477    1.420   .     S
C411   I699    2.148   1_545 S
C412   I444    2.132   .     S
C412   C478    1.381   1_455 S
C413   C475    1.420   1_455 S
C413   I701    2.152   1_545 S
C414   C476    1.381   .     S
C414   I830    2.123   .     S
C415   C672    1.330   1_545 S
C415   H673    1.083   1_545 S
C416   C543    1.330   .     S
C416   H546    1.086   .     S
H417   C543    1.083   .     S
H418   C672    1.086   1_545 S
N420   N803    1.303   .     S
N420   I832    2.077   .     S
C423   C424    1.532   .     S
C423   H431    1.101   .     S
C423   H432    1.111   .     S
C424   H430    1.112   .     S
C424   H429    1.106   .     S
C425   H427    1.109   .     S
C425   H426    1.106   .     S
C425   H428    1.107   .     S
C425   C808    1.525   .     S
C433   H441    1.107   .     S
C433   C434    1.539   .     S
C433   H442    1.097   .     S
C434   H440    1.111   .     S
C434   C819    1.519   .     S
C434   H823    1.107   .     S
C435   H438    1.109   .     S
C435   H437    1.107   .     S
H436   C819    1.107   .     S
I443   C539    2.148   .     S
I445   C541    2.152   .     S
I447   N803    2.078   .     S
O449   C453    1.307   .     A
O449   Cu461   1.977   .     S
O450   C454    1.310   .     A
O450   Cu462   1.977   .     S
O451   Cu462   1.968   .     S
O451   C453    1.303   .     A
O452   C454    1.301   .     A
O452   Cu461   1.968   .     S
C453   C479    1.437   .     S
C454   C480    1.440   .     S
O455   Cu461   1.967   .     S
O455   C459    1.306   .     A
O456   C460    1.311   .     A
O456   Cu462   1.967   .     S
O457   C459    1.317   .     A
O457   Cu462   1.957   .     S
O458   Cu461   1.957   .     S
O458   C460    1.311   .     A
C459   C466    1.474   .     S
C460   C465    1.466   .     S
Cu461  Cu462   2.734   .     S
Cu461  N484    2.055   .     S
Cu462  N483    2.055   .     S
C463   C473    1.392   .     A
C463   C465    1.401   .     A
C463   I485    2.149   .     S
C464   C474    1.417   .     A
C464   C466    1.412   .     A
C464   I486    2.148   .     S
C465   C467    1.424   .     A
C466   C468    1.424   .     A
C467   C487    1.525   .     S
C467   C469    1.424   .     A
C468   C497    1.522   .     S
C468   C470    1.423   .     A
C469   C475    1.410   .     A
C469   C471    1.403   .     A
C470   C472    1.432   .     A
C470   C476    1.438   .     A
C471   C473    1.396   .     A
C471   C408    1.413   1_655 S
C472   C474    1.416   .     A
C473   C478    1.378   .     A
C474   C477    1.432   .     A
C475   C413    1.420   1_655 S
C475   I763    2.148   1_545 S
C476   I508    2.132   .     S
C477   I765    2.152   1_545 S
C478   C412    1.381   1_655 S
C478   I894    2.123   .     S
C479   C736    1.330   1_545 S
C479   H737    1.083   1_545 S
C480   C607    1.330   .     S
C480   H610    1.086   .     S
H481   C607    1.083   .     S
H482   C736    1.086   1_545 S
N484   N867    1.303   .     S
N484   I896    2.077   .     S
C487   C488    1.532   .     S
C487   H495    1.101   .     S
C487   H496    1.111   .     S
C488   H494    1.112   .     S
C488   H493    1.106   .     S
C489   H491    1.109   .     S
C489   H490    1.106   .     S
C489   H492    1.107   .     S
C489   C872    1.525   .     S
C497   H505    1.107   .     S
C497   C498    1.539   .     S
C497   H506    1.097   .     S
C498   H504    1.111   .     S
C498   C883    1.519   .     S
C498   H887    1.107   .     S
C499   H502    1.109   .     S
C499   H501    1.107   .     S
H500   C883    1.107   .     S
I507   C603    2.148   .     S
I509   C605    2.152   .     S
I511   N867    2.078   .     S
O513   C517    1.307   .     A
O513   Cu525   1.977   .     S
O514   C518    1.310   .     A
O514   Cu526   1.977   .     S
O515   Cu526   1.968   .     S
O515   C517    1.303   .     A
O516   C518    1.301   .     A
O516   Cu525   1.968   .     S
C517   C543    1.437   .     S
C518   C544    1.440   .     S
O519   Cu525   1.967   .     S
O519   C523    1.306   .     A
O520   C524    1.311   .     A
O520   Cu526   1.967   .     S
O521   C523    1.317   .     A
O521   Cu526   1.957   .     S
O522   Cu525   1.957   .     S
O522   C524    1.311   .     A
C523   C530    1.474   .     S
C524   C529    1.466   .     S
Cu525  Cu526   2.734   .     S
Cu525  N548    2.055   .     S
Cu526  N547    2.055   .     S
C527   C537    1.392   .     A
C527   C529    1.401   .     A
C527   I549    2.149   .     S
C528   C538    1.417   .     A
C528   C530    1.412   .     A
C528   I550    2.148   .     S
C529   C531    1.424   .     A
C530   C532    1.424   .     A
C531   C551    1.525   .     S
C531   C533    1.424   .     A
C532   C561    1.522   .     S
C532   C534    1.423   .     A
C533   C539    1.410   .     A
C533   C535    1.403   .     A
C534   C536    1.432   .     A
C534   C540    1.438   .     A
C535   C537    1.396   .     A
C535   C600    1.413   .     S
C536   C538    1.416   .     A
C536   C599    1.413   1_455 S
C537   C542    1.378   .     A
C538   C541    1.432   .     A
C539   C605    1.420   .     S
C540   I572    2.132   .     S
C540   C606    1.381   1_455 S
C541   C603    1.420   1_455 S
C542   C604    1.381   .     S
C542   I958    2.123   .     S
C544   C671    1.330   .     S
C544   H674    1.086   .     S
H545   C671    1.083   .     S
N548   N931    1.303   .     S
N548   I960    2.077   .     S
C551   C552    1.532   .     S
C551   H559    1.101   .     S
C551   H560    1.111   .     S
C552   H558    1.112   .     S
C552   H557    1.106   .     S
C553   H555    1.109   .     S
C553   H554    1.106   .     S
C553   H556    1.107   .     S
C553   C936    1.525   .     S
C561   H569    1.107   .     S
C561   C562    1.539   .     S
C561   H570    1.097   .     S
C562   H568    1.111   .     S
C562   C947    1.519   .     S
C562   H951    1.107   .     S
C563   H566    1.109   .     S
C563   H565    1.107   .     S
H564   C947    1.107   .     S
I571   C667    2.148   .     S
I573   C669    2.152   .     S
I575   N931    2.078   .     S
O577   C581    1.307   .     A
O577   Cu589   1.977   .     S
O578   C582    1.310   .     A
O578   Cu590   1.977   .     S
O579   Cu590   1.968   .     S
O579   C581    1.303   .     A
O580   C582    1.301   .     A
O580   Cu589   1.968   .     S
C581   C607    1.437   .     S
C582   C608    1.440   .     S
O583   Cu589   1.967   .     S
O583   C587    1.306   .     A
O584   C588    1.311   .     A
O584   Cu590   1.967   .     S
O585   C587    1.317   .     A
O585   Cu590   1.957   .     S
O586   Cu589   1.957   .     S
O586   C588    1.311   .     A
C587   C594    1.474   .     S
C588   C593    1.466   .     S
Cu589  Cu590   2.734   .     S
Cu589  N612    2.055   .     S
Cu590  N611    2.055   .     S
C591   C601    1.392   .     A
C591   C593    1.401   .     A
C591   I613    2.149   .     S
C592   C602    1.417   .     A
C592   C594    1.412   .     A
C592   I614    2.148   .     S
C593   C595    1.424   .     A
C594   C596    1.424   .     A
C595   C615    1.525   .     S
C595   C597    1.424   .     A
C596   C625    1.522   .     S
C596   C598    1.423   .     A
C597   C603    1.410   .     A
C597   C599    1.403   .     A
C598   C600    1.432   .     A
C598   C604    1.438   .     A
C599   C601    1.396   .     A
C599   C536    1.413   1_655 S
C600   C602    1.416   .     A
C601   C606    1.378   .     A
C602   C605    1.432   .     A
C603   C541    1.420   1_655 S
C604   I636    2.132   .     S
C606   C540    1.381   1_655 S
C606   I1022   2.123   .     S
C608   C735    1.330   .     S
C608   H738    1.086   .     S
H609   C735    1.083   .     S
N612   N995    1.303   .     S
N612   I1024   2.077   .     S
C615   C616    1.532   .     S
C615   H623    1.101   .     S
C615   H624    1.111   .     S
C616   H622    1.112   .     S
C616   H621    1.106   .     S
C617   H619    1.109   .     S
C617   H618    1.106   .     S
C617   H620    1.107   .     S
C617   C1000   1.525   .     S
C625   H633    1.107   .     S
C625   C626    1.539   .     S
C625   H634    1.097   .     S
C626   H632    1.111   .     S
C626   C1011   1.519   .     S
C626   H1015   1.107   .     S
C627   H630    1.109   .     S
C627   H629    1.107   .     S
H628   C1011   1.107   .     S
I635   C731    2.148   .     S
I637   C733    2.152   .     S
I639   N995    2.078   .     S
O641   C645    1.307   .     A
O641   Cu653   1.977   .     S
O642   C646    1.310   .     A
O642   Cu654   1.977   .     S
O643   Cu654   1.968   .     S
O643   C645    1.303   .     A
O644   C646    1.301   .     A
O644   Cu653   1.968   .     S
C645   C671    1.437   .     S
C646   C672    1.440   .     S
O647   Cu653   1.967   .     S
O647   C651    1.306   .     A
O648   C652    1.311   .     A
O648   Cu654   1.967   .     S
O649   C651    1.317   .     A
O649   Cu654   1.957   .     S
O650   Cu653   1.957   .     S
O650   C652    1.311   .     A
C651   C658    1.474   .     S
C652   C657    1.466   .     S
Cu653  Cu654   2.734   .     S
Cu653  N676    2.055   .     S
Cu654  N675    2.055   .     S
C655   C665    1.392   .     A
C655   C657    1.401   .     A
C655   I677    2.149   .     S
C656   C666    1.417   .     A
C656   C658    1.412   .     A
C656   I678    2.148   .     S
C657   C659    1.424   .     A
C658   C660    1.424   .     A
C659   C679    1.525   .     S
C659   C661    1.424   .     A
C660   C689    1.522   .     S
C660   C662    1.423   .     A
C661   C667    1.410   .     A
C661   C663    1.403   .     A
C662   C664    1.432   .     A
C662   C668    1.438   .     A
C663   C665    1.396   .     A
C663   C728    1.413   .     S
C664   C666    1.416   .     A
C664   C727    1.413   1_455 S
C665   C670    1.378   .     A
C666   C669    1.432   .     A
C667   C733    1.420   .     S
C668   I700    2.132   .     S
C668   C734    1.381   1_455 S
C669   C731    1.420   1_455 S
C670   C732    1.381   .     S
C670   I1086   2.123   .     S
C672   C415    1.330   1_565 S
C672   H418    1.086   1_565 S
H673   C415    1.083   1_565 S
N676   N1059   1.303   .     S
N676   I1088   2.077   .     S
C679   C680    1.532   .     S
C679   H687    1.101   .     S
C679   H688    1.111   .     S
C680   H686    1.112   .     S
C680   H685    1.106   .     S
C681   H683    1.109   .     S
C681   H682    1.106   .     S
C681   H684    1.107   .     S
C681   C1064   1.525   .     S
C689   H697    1.107   .     S
C689   C690    1.539   .     S
C689   H698    1.097   .     S
C690   H696    1.111   .     S
C690   C1075   1.519   .     S
C690   H1079   1.107   .     S
C691   H694    1.109   .     S
C691   H693    1.107   .     S
H692   C1075   1.107   .     S
I699   C411    2.148   1_565 S
I701   C413    2.152   1_565 S
I703   N1059   2.078   .     S
O705   C709    1.307   .     A
O705   Cu717   1.977   .     S
O706   C710    1.310   .     A
O706   Cu718   1.977   .     S
O707   Cu718   1.968   .     S
O707   C709    1.303   .     A
O708   C710    1.301   .     A
O708   Cu717   1.968   .     S
C709   C735    1.437   .     S
C710   C736    1.440   .     S
O711   Cu717   1.967   .     S
O711   C715    1.306   .     A
O712   C716    1.311   .     A
O712   Cu718   1.967   .     S
O713   C715    1.317   .     A
O713   Cu718   1.957   .     S
O714   Cu717   1.957   .     S
O714   C716    1.311   .     A
C715   C722    1.474   .     S
C716   C721    1.466   .     S
Cu717  Cu718   2.734   .     S
Cu717  N740    2.055   .     S
Cu718  N739    2.055   .     S
C719   C729    1.392   .     A
C719   C721    1.401   .     A
C719   I741    2.149   .     S
C720   C730    1.417   .     A
C720   C722    1.412   .     A
C720   I742    2.148   .     S
C721   C723    1.424   .     A
C722   C724    1.424   .     A
C723   C743    1.525   .     S
C723   C725    1.424   .     A
C724   C753    1.522   .     S
C724   C726    1.423   .     A
C725   C731    1.410   .     A
C725   C727    1.403   .     A
C726   C728    1.432   .     A
C726   C732    1.438   .     A
C727   C729    1.396   .     A
C727   C664    1.413   1_655 S
C728   C730    1.416   .     A
C729   C734    1.378   .     A
C730   C733    1.432   .     A
C731   C669    1.420   1_655 S
C732   I764    2.132   .     S
C734   C668    1.381   1_655 S
C734   I1150   2.123   .     S
C736   C479    1.330   1_565 S
C736   H482    1.086   1_565 S
H737   C479    1.083   1_565 S
N740   N1123   1.303   .     S
N740   I1152   2.077   .     S
C743   C744    1.532   .     S
C743   H751    1.101   .     S
C743   H752    1.111   .     S
C744   H750    1.112   .     S
C744   H749    1.106   .     S
C745   H747    1.109   .     S
C745   H746    1.106   .     S
C745   H748    1.107   .     S
C745   C1128   1.525   .     S
C753   H761    1.107   .     S
C753   C754    1.539   .     S
C753   H762    1.097   .     S
C754   H760    1.111   .     S
C754   C1139   1.519   .     S
C754   H1143   1.107   .     S
C755   H758    1.109   .     S
C755   H757    1.107   .     S
H756   C1139   1.107   .     S
I763   C475    2.148   1_565 S
I765   C477    2.152   1_565 S
I767   N1123   2.078   .     S
O769   C773    1.307   .     A
O769   Cu781   1.977   .     S
O770   C774    1.310   .     A
O770   Cu782   1.977   .     S
O771   Cu782   1.968   .     S
O771   C773    1.303   .     A
O772   C774    1.301   .     A
O772   Cu781   1.968   .     S
C773   C799    1.437   .     S
C774   C800    1.440   .     S
O775   Cu781   1.967   .     S
O775   C779    1.306   .     A
O776   C780    1.311   .     A
O776   Cu782   1.967   .     S
O777   C779    1.317   .     A
O777   Cu782   1.957   .     S
O778   Cu781   1.957   .     S
O778   C780    1.311   .     A
C779   C786    1.474   .     S
C780   C785    1.466   .     S
Cu781  Cu782   2.734   .     S
Cu781  N804    2.055   .     S
Cu782  N803    2.055   .     S
C783   C793    1.392   .     A
C783   C785    1.401   .     A
C783   I805    2.149   .     S
C784   C794    1.417   .     A
C784   C786    1.412   .     A
C784   I806    2.148   .     S
C785   C787    1.424   .     A
C786   C788    1.424   .     A
C787   C807    1.525   .     S
C787   C789    1.424   .     A
C788   C817    1.522   .     S
C788   C790    1.423   .     A
C789   C795    1.410   .     A
C789   C791    1.403   .     A
C790   C792    1.432   .     A
C790   C796    1.438   .     A
C791   C793    1.396   .     A
C791   C856    1.413   .     S
C792   C794    1.416   .     A
C792   C855    1.413   1_455 S
C793   C798    1.378   .     A
C794   C797    1.432   .     A
C795   C861    1.420   .     S
C795   I1083   2.148   1_545 S
C796   I828    2.132   .     S
C796   C862    1.381   1_455 S
C797   C859    1.420   1_455 S
C797   I1085   2.152   1_545 S
C798   C860    1.381   .     S
C798   I62     2.123   1_556 S
C799   C1056   1.330   1_545 S
C799   H1057   1.083   1_545 S
C800   C927    1.330   .     S
C800   H930    1.086   .     S
H801   C927    1.083   .     S
H802   C1056   1.086   1_545 S
N804   N35     1.303   1_556 S
N804   I64     2.077   1_556 S
C807   C808    1.532   .     S
C807   H815    1.101   .     S
C807   H816    1.111   .     S
C808   H814    1.112   .     S
C808   H813    1.106   .     S
C809   H811    1.109   .     S
C809   H810    1.106   .     S
C809   H812    1.107   .     S
C809   C40     1.525   1_556 S
C817   H825    1.107   .     S
C817   C818    1.539   .     S
C817   H826    1.097   .     S
C818   H824    1.111   .     S
C818   C51     1.519   1_556 S
C818   H55     1.107   1_556 S
C819   H822    1.109   .     S
C819   H821    1.107   .     S
H820   C51     1.107   1_556 S
I827   C923    2.148   .     S
I829   C925    2.152   .     S
I831   N35     2.078   1_556 S
O833   C837    1.307   .     A
O833   Cu845   1.977   .     S
O834   C838    1.310   .     A
O834   Cu846   1.977   .     S
O835   Cu846   1.968   .     S
O835   C837    1.303   .     A
O836   C838    1.301   .     A
O836   Cu845   1.968   .     S
C837   C863    1.437   .     S
C838   C864    1.440   .     S
O839   Cu845   1.967   .     S
O839   C843    1.306   .     A
O840   C844    1.311   .     A
O840   Cu846   1.967   .     S
O841   C843    1.317   .     A
O841   Cu846   1.957   .     S
O842   Cu845   1.957   .     S
O842   C844    1.311   .     A
C843   C850    1.474   .     S
C844   C849    1.466   .     S
Cu845  Cu846   2.734   .     S
Cu845  N868    2.055   .     S
Cu846  N867    2.055   .     S
C847   C857    1.392   .     A
C847   C849    1.401   .     A
C847   I869    2.149   .     S
C848   C858    1.417   .     A
C848   C850    1.412   .     A
C848   I870    2.148   .     S
C849   C851    1.424   .     A
C850   C852    1.424   .     A
C851   C871    1.525   .     S
C851   C853    1.424   .     A
C852   C881    1.522   .     S
C852   C854    1.423   .     A
C853   C859    1.410   .     A
C853   C855    1.403   .     A
C854   C856    1.432   .     A
C854   C860    1.438   .     A
C855   C857    1.396   .     A
C855   C792    1.413   1_655 S
C856   C858    1.416   .     A
C857   C862    1.378   .     A
C858   C861    1.432   .     A
C859   C797    1.420   1_655 S
C859   I1147   2.148   1_545 S
C860   I892    2.132   .     S
C861   I1149   2.152   1_545 S
C862   C796    1.381   1_655 S
C862   I126    2.123   1_556 S
C863   C1120   1.330   1_545 S
C863   H1121   1.083   1_545 S
C864   C991    1.330   .     S
C864   H994    1.086   .     S
H865   C991    1.083   .     S
H866   C1120   1.086   1_545 S
N868   N99     1.303   1_556 S
N868   I128    2.077   1_556 S
C871   C872    1.532   .     S
C871   H879    1.101   .     S
C871   H880    1.111   .     S
C872   H878    1.112   .     S
C872   H877    1.106   .     S
C873   H875    1.109   .     S
C873   H874    1.106   .     S
C873   H876    1.107   .     S
C873   C104    1.525   1_556 S
C881   H889    1.107   .     S
C881   C882    1.539   .     S
C881   H890    1.097   .     S
C882   H888    1.111   .     S
C882   C115    1.519   1_556 S
C882   H119    1.107   1_556 S
C883   H886    1.109   .     S
C883   H885    1.107   .     S
H884   C115    1.107   1_556 S
I891   C987    2.148   .     S
I893   C989    2.152   .     S
I895   N99     2.078   1_556 S
O897   C901    1.307   .     A
O897   Cu909   1.977   .     S
O898   C902    1.310   .     A
O898   Cu910   1.977   .     S
O899   Cu910   1.968   .     S
O899   C901    1.303   .     A
O900   C902    1.301   .     A
O900   Cu909   1.968   .     S
C901   C927    1.437   .     S
C902   C928    1.440   .     S
O903   Cu909   1.967   .     S
O903   C907    1.306   .     A
O904   C908    1.311   .     A
O904   Cu910   1.967   .     S
O905   C907    1.317   .     A
O905   Cu910   1.957   .     S
O906   Cu909   1.957   .     S
O906   C908    1.311   .     A
C907   C914    1.474   .     S
C908   C913    1.466   .     S
Cu909  Cu910   2.734   .     S
Cu909  N932    2.055   .     S
Cu910  N931    2.055   .     S
C911   C921    1.392   .     A
C911   C913    1.401   .     A
C911   I933    2.149   .     S
C912   C922    1.417   .     A
C912   C914    1.412   .     A
C912   I934    2.148   .     S
C913   C915    1.424   .     A
C914   C916    1.424   .     A
C915   C935    1.525   .     S
C915   C917    1.424   .     A
C916   C945    1.522   .     S
C916   C918    1.423   .     A
C917   C923    1.410   .     A
C917   C919    1.403   .     A
C918   C920    1.432   .     A
C918   C924    1.438   .     A
C919   C921    1.396   .     A
C919   C984    1.413   .     S
C920   C922    1.416   .     A
C920   C983    1.413   1_455 S
C921   C926    1.378   .     A
C922   C925    1.432   .     A
C923   C989    1.420   .     S
C924   I956    2.132   .     S
C924   C990    1.381   1_455 S
C925   C987    1.420   1_455 S
C926   C988    1.381   .     S
C926   I190    2.123   1_556 S
C928   C1055   1.330   .     S
C928   H1058   1.086   .     S
H929   C1055   1.083   .     S
N932   N163    1.303   1_556 S
N932   I192    2.077   1_556 S
C935   C936    1.532   .     S
C935   H943    1.101   .     S
C935   H944    1.111   .     S
C936   H942    1.112   .     S
C936   H941    1.106   .     S
C937   H939    1.109   .     S
C937   H938    1.106   .     S
C937   H940    1.107   .     S
C937   C168    1.525   1_556 S
C945   H953    1.107   .     S
C945   C946    1.539   .     S
C945   H954    1.097   .     S
C946   H952    1.111   .     S
C946   C179    1.519   1_556 S
C946   H183    1.107   1_556 S
C947   H950    1.109   .     S
C947   H949    1.107   .     S
H948   C179    1.107   1_556 S
I955   C1051   2.148   .     S
I957   C1053   2.152   .     S
I959   N163    2.078   1_556 S
O961   C965    1.307   .     A
O961   Cu973   1.977   .     S
O962   C966    1.310   .     A
O962   Cu974   1.977   .     S
O963   Cu974   1.968   .     S
O963   C965    1.303   .     A
O964   C966    1.301   .     A
O964   Cu973   1.968   .     S
C965   C991    1.437   .     S
C966   C992    1.440   .     S
O967   Cu973   1.967   .     S
O967   C971    1.306   .     A
O968   C972    1.311   .     A
O968   Cu974   1.967   .     S
O969   C971    1.317   .     A
O969   Cu974   1.957   .     S
O970   Cu973   1.957   .     S
O970   C972    1.311   .     A
C971   C978    1.474   .     S
C972   C977    1.466   .     S
Cu973  Cu974   2.734   .     S
Cu973  N996    2.055   .     S
Cu974  N995    2.055   .     S
C975   C985    1.392   .     A
C975   C977    1.401   .     A
C975   I997    2.149   .     S
C976   C986    1.417   .     A
C976   C978    1.412   .     A
C976   I998    2.148   .     S
C977   C979    1.424   .     A
C978   C980    1.424   .     A
C979   C999    1.525   .     S
C979   C981    1.424   .     A
C980   C1009   1.522   .     S
C980   C982    1.423   .     A
C981   C987    1.410   .     A
C981   C983    1.403   .     A
C982   C984    1.432   .     A
C982   C988    1.438   .     A
C983   C985    1.396   .     A
C983   C920    1.413   1_655 S
C984   C986    1.416   .     A
C985   C990    1.378   .     A
C986   C989    1.432   .     A
C987   C925    1.420   1_655 S
C988   I1020   2.132   .     S
C990   C924    1.381   1_655 S
C990   I254    2.123   1_556 S
C992   C1119   1.330   .     S
C992   H1122   1.086   .     S
H993   C1119   1.083   .     S
N996   N227    1.303   1_556 S
N996   I256    2.077   1_556 S
C999   C1000   1.532   .     S
C999   H1007   1.101   .     S
C999   H1008   1.111   .     S
C1000  H1006   1.112   .     S
C1000  H1005   1.106   .     S
C1001  H1003   1.109   .     S
C1001  H1002   1.106   .     S
C1001  H1004   1.107   .     S
C1001  C232    1.525   1_556 S
C1009  H1017   1.107   .     S
C1009  C1010   1.539   .     S
C1009  H1018   1.097   .     S
C1010  H1016   1.111   .     S
C1010  C243    1.519   1_556 S
C1010  H247    1.107   1_556 S
C1011  H1014   1.109   .     S
C1011  H1013   1.107   .     S
H1012  C243    1.107   1_556 S
I1019  C1115   2.148   .     S
I1021  C1117   2.152   .     S
I1023  N227    2.078   1_556 S
O1025  C1029   1.307   .     A
O1025  Cu1037  1.977   .     S
O1026  C1030   1.310   .     A
O1026  Cu1038  1.977   .     S
O1027  Cu1038  1.968   .     S
O1027  C1029   1.303   .     A
O1028  C1030   1.301   .     A
O1028  Cu1037  1.968   .     S
C1029  C1055   1.437   .     S
C1030  C1056   1.440   .     S
O1031  Cu1037  1.967   .     S
O1031  C1035   1.306   .     A
O1032  C1036   1.311   .     A
O1032  Cu1038  1.967   .     S
O1033  C1035   1.317   .     A
O1033  Cu1038  1.957   .     S
O1034  Cu1037  1.957   .     S
O1034  C1036   1.311   .     A
C1035  C1042   1.474   .     S
C1036  C1041   1.466   .     S
Cu1037 Cu1038  2.734   .     S
Cu1037 N1060   2.055   .     S
Cu1038 N1059   2.055   .     S
C1039  C1049   1.392   .     A
C1039  C1041   1.401   .     A
C1039  I1061   2.149   .     S
C1040  C1050   1.417   .     A
C1040  C1042   1.412   .     A
C1040  I1062   2.148   .     S
C1041  C1043   1.424   .     A
C1042  C1044   1.424   .     A
C1043  C1063   1.525   .     S
C1043  C1045   1.424   .     A
C1044  C1073   1.522   .     S
C1044  C1046   1.423   .     A
C1045  C1051   1.410   .     A
C1045  C1047   1.403   .     A
C1046  C1048   1.432   .     A
C1046  C1052   1.438   .     A
C1047  C1049   1.396   .     A
C1047  C1112   1.413   .     S
C1048  C1050   1.416   .     A
C1048  C1111   1.413   1_455 S
C1049  C1054   1.378   .     A
C1050  C1053   1.432   .     A
C1051  C1117   1.420   .     S
C1052  I1084   2.132   .     S
C1052  C1118   1.381   1_455 S
C1053  C1115   1.420   1_455 S
C1054  C1116   1.381   .     S
C1054  I318    2.123   1_556 S
C1056  C799    1.330   1_565 S
C1056  H802    1.086   1_565 S
H1057  C799    1.083   1_565 S
N1060  N291    1.303   1_556 S
N1060  I320    2.077   1_556 S
C1063  C1064   1.532   .     S
C1063  H1071   1.101   .     S
C1063  H1072   1.111   .     S
C1064  H1070   1.112   .     S
C1064  H1069   1.106   .     S
C1065  H1067   1.109   .     S
C1065  H1066   1.106   .     S
C1065  H1068   1.107   .     S
C1065  C296    1.525   1_556 S
C1073  H1081   1.107   .     S
C1073  C1074   1.539   .     S
C1073  H1082   1.097   .     S
C1074  H1080   1.111   .     S
C1074  C307    1.519   1_556 S
C1074  H311    1.107   1_556 S
C1075  H1078   1.109   .     S
C1075  H1077   1.107   .     S
H1076  C307    1.107   1_556 S
I1083  C795    2.148   1_565 S
I1085  C797    2.152   1_565 S
I1087  N291    2.078   1_556 S
O1089  C1093   1.307   .     A
O1089  Cu1101  1.977   .     S
O1090  C1094   1.310   .     A
O1090  Cu1102  1.977   .     S
O1091  Cu1102  1.968   .     S
O1091  C1093   1.303   .     A
O1092  C1094   1.301   .     A
O1092  Cu1101  1.968   .     S
C1093  C1119   1.437   .     S
C1094  C1120   1.440   .     S
O1095  Cu1101  1.967   .     S
O1095  C1099   1.306   .     A
O1096  C1100   1.311   .     A
O1096  Cu1102  1.967   .     S
O1097  C1099   1.317   .     A
O1097  Cu1102  1.957   .     S
O1098  Cu1101  1.957   .     S
O1098  C1100   1.311   .     A
C1099  C1106   1.474   .     S
C1100  C1105   1.466   .     S
Cu1101 Cu1102  2.734   .     S
Cu1101 N1124   2.055   .     S
Cu1102 N1123   2.055   .     S
C1103  C1113   1.392   .     A
C1103  C1105   1.401   .     A
C1103  I1125   2.149   .     S
C1104  C1114   1.417   .     A
C1104  C1106   1.412   .     A
C1104  I1126   2.148   .     S
C1105  C1107   1.424   .     A
C1106  C1108   1.424   .     A
C1107  C1127   1.525   .     S
C1107  C1109   1.424   .     A
C1108  C1137   1.522   .     S
C1108  C1110   1.423   .     A
C1109  C1115   1.410   .     A
C1109  C1111   1.403   .     A
C1110  C1112   1.432   .     A
C1110  C1116   1.438   .     A
C1111  C1113   1.396   .     A
C1111  C1048   1.413   1_655 S
C1112  C1114   1.416   .     A
C1113  C1118   1.378   .     A
C1114  C1117   1.432   .     A
C1115  C1053   1.420   1_655 S
C1116  I1148   2.132   .     S
C1118  C1052   1.381   1_655 S
C1118  I382    2.123   1_556 S
C1120  C863    1.330   1_565 S
C1120  H866    1.086   1_565 S
H1121  C863    1.083   1_565 S
N1124  N355    1.303   1_556 S
N1124  I384    2.077   1_556 S
C1127  C1128   1.532   .     S
C1127  H1135   1.101   .     S
C1127  H1136   1.111   .     S
C1128  H1134   1.112   .     S
C1128  H1133   1.106   .     S
C1129  H1131   1.109   .     S
C1129  H1130   1.106   .     S
C1129  H1132   1.107   .     S
C1129  C360    1.525   1_556 S
C1137  H1145   1.107   .     S
C1137  C1138   1.539   .     S
C1137  H1146   1.097   .     S
C1138  H1144   1.111   .     S
C1138  C371    1.519   1_556 S
C1138  H375    1.107   1_556 S
C1139  H1142   1.109   .     S
C1139  H1141   1.107   .     S
H1140  C371    1.107   1_556 S
I1147  C859    2.148   1_565 S
I1149  C861    2.152   1_565 S
I1151  N355    2.078   1_556 S
