data_str_m2_o10_o16_pcu_sym.90
_audit_creation_date              2020-01-03
_audit_creation_method            'Materials Studio'
_symmetry_space_group_name_H-M    'P1'
_symmetry_Int_Tables_number       1
_symmetry_cell_setting            triclinic
loop_
_symmetry_equiv_pos_as_xyz
  x,y,z
_cell_length_a                    22.2815
_cell_length_b                    26.0838
_cell_length_c                    26.8121
_cell_angle_alpha                 94.0204
_cell_angle_beta                  77.2192
_cell_angle_gamma                 103.1492
loop_
_atom_site_label
_atom_site_type_symbol
_atom_site_fract_x
_atom_site_fract_y
_atom_site_fract_z
_atom_site_U_iso_or_equiv
_atom_site_adp_type
_atom_site_occupancy
C1     C     0.18176   0.26674   0.25156   0.00000  Uiso   1.00
C2     C     0.11138   0.16387   0.40388   0.00000  Uiso   1.00
C3     C     0.19026   0.32269   0.25236   0.00000  Uiso   1.00
C4     C     0.13286   0.16547   0.34741   0.00000  Uiso   1.00
C5     C     0.14300   0.01064   0.24784   0.00000  Uiso   1.00
C6     C     0.15154   0.06660   0.24853   0.00000  Uiso   1.00
C7     C     0.20066   0.17032   0.15291   0.00000  Uiso   1.00
C8     C     0.29315   0.22575   0.02621   0.00000  Uiso   1.00
C9     C     0.22118   0.17864   0.09774   0.00000  Uiso   1.00
C10    C     0.04903   0.13764   0.42558   0.00000  Uiso   1.00
C11    C     0.03222   0.12790   0.47805   0.00000  Uiso   1.00
C12    C     0.13921   0.16787   0.48805   0.00000  Uiso   1.00
C13    C     0.07655   0.14155   0.00849   0.00000  Uiso   1.00
C14    C     0.15475   0.18337   0.43629   0.00000  Uiso   1.00
C15    C     0.18661   0.18038   0.01771   0.00000  Uiso   1.00
C16    C     0.24642   0.21243   0.49703   0.00000  Uiso   1.00
C17    C     0.25827   0.23220   0.44809   0.00000  Uiso   1.00
C18    C     0.21290   0.21870   0.41854   0.00000  Uiso   1.00
C19    C     0.17634   0.16214   0.06752   0.00000  Uiso   1.00
C20    C     0.28042   0.20927   0.07656   0.00000  Uiso   1.00
Cu21   Cu    0.10710   0.16105   0.24435   0.00000  Uiso   1.00
Cu22   Cu    0.22623   0.17228   0.25564   0.00000  Uiso   1.00
H23    H     0.31566   0.22239   0.09948   0.00000  Uiso   1.00
H24    H     0.22360   0.23777   0.38217   0.00000  Uiso   1.00
H25    H     0.23580   0.01315   0.25664   0.00000  Uiso   1.00
H26    H     0.29770   0.10408   0.41639   0.00000  Uiso   1.00
H27    H     0.09746   0.32018   0.24358   0.00000  Uiso   1.00
H28    H     0.00358   0.20580   0.28971   0.00000  Uiso   1.00
H29    H     0.32972   0.12749   0.21033   0.00000  Uiso   1.00
H30    H     0.30277   0.25853   0.43260   0.00000  Uiso   1.00
H31    H     0.00556   0.25022   0.01055   0.00000  Uiso   1.00
H32    H     0.13303   0.13576   0.08449   0.00000  Uiso   1.00
H33    H     0.05942   0.13236   0.04837   0.00000  Uiso   1.00
H34    H     0.31788   0.10834   0.49545   0.00000  Uiso   1.00
N35    N     0.31574   0.18074   0.26416   0.00000  Uiso   1.00
N36    N     0.01759   0.15259   0.23584   0.00000  Uiso   1.00
O37    O     0.12797   0.23807   0.24633   0.00000  Uiso   1.00
O38    O     0.22858   0.24755   0.25586   0.00000  Uiso   1.00
O39    O     0.09181   0.15960   0.31839   0.00000  Uiso   1.00
O40    O     0.19242   0.16908   0.32793   0.00000  Uiso   1.00
O41    O     0.10476   0.08578   0.24414   0.00000  Uiso   1.00
O42    O     0.20536   0.09526   0.25367   0.00000  Uiso   1.00
O43    O     0.14092   0.16425   0.17207   0.00000  Uiso   1.00
O44    O     0.24152   0.17373   0.18160   0.00000  Uiso   1.00
O45    O     0.00557   0.12090   0.39496   0.00000  Uiso   1.00
C46    C     0.51509   0.26674   0.25156   0.00000  Uiso   1.00
C47    C     0.44471   0.16387   0.40388   0.00000  Uiso   1.00
C48    C     0.52359   0.32269   0.25236   0.00000  Uiso   1.00
C49    C     0.46619   0.16547   0.34741   0.00000  Uiso   1.00
C50    C     0.47634   0.01064   0.24784   0.00000  Uiso   1.00
C51    C     0.48487   0.06660   0.24853   0.00000  Uiso   1.00
C52    C     0.53399   0.17032   0.15291   0.00000  Uiso   1.00
C53    C     0.62648   0.22575   0.02621   0.00000  Uiso   1.00
C54    C     0.55451   0.17864   0.09774   0.00000  Uiso   1.00
C55    C     0.38237   0.13764   0.42558   0.00000  Uiso   1.00
C56    C     0.36555   0.12790   0.47805   0.00000  Uiso   1.00
C57    C     0.47255   0.16787   0.48805   0.00000  Uiso   1.00
C58    C     0.40989   0.14155   0.00849   0.00000  Uiso   1.00
C59    C     0.48809   0.18337   0.43629   0.00000  Uiso   1.00
C60    C     0.51995   0.18038   0.01771   0.00000  Uiso   1.00
C61    C     0.57976   0.21243   0.49703   0.00000  Uiso   1.00
C62    C     0.59161   0.23220   0.44809   0.00000  Uiso   1.00
C63    C     0.54624   0.21870   0.41854   0.00000  Uiso   1.00
C64    C     0.50967   0.16214   0.06752   0.00000  Uiso   1.00
C65    C     0.61375   0.20927   0.07656   0.00000  Uiso   1.00
Cu66   Cu    0.44043   0.16105   0.24435   0.00000  Uiso   1.00
Cu67   Cu    0.55957   0.17228   0.25564   0.00000  Uiso   1.00
H68    H     0.64899   0.22239   0.09948   0.00000  Uiso   1.00
H69    H     0.55693   0.23777   0.38217   0.00000  Uiso   1.00
H70    H     0.56913   0.01315   0.25664   0.00000  Uiso   1.00
H71    H     0.63103   0.10408   0.41639   0.00000  Uiso   1.00
H72    H     0.43079   0.32018   0.24358   0.00000  Uiso   1.00
H73    H     0.33691   0.20580   0.28971   0.00000  Uiso   1.00
H74    H     0.66305   0.12749   0.21033   0.00000  Uiso   1.00
H75    H     0.63611   0.25853   0.43260   0.00000  Uiso   1.00
H76    H     0.33889   0.25022   0.01055   0.00000  Uiso   1.00
H77    H     0.46636   0.13576   0.08449   0.00000  Uiso   1.00
H78    H     0.39276   0.13236   0.04837   0.00000  Uiso   1.00
H79    H     0.65121   0.10834   0.49545   0.00000  Uiso   1.00
N80    N     0.64908   0.18074   0.26416   0.00000  Uiso   1.00
N81    N     0.35092   0.15259   0.23584   0.00000  Uiso   1.00
O82    O     0.46131   0.23807   0.24633   0.00000  Uiso   1.00
O83    O     0.56191   0.24755   0.25586   0.00000  Uiso   1.00
O84    O     0.42515   0.15960   0.31839   0.00000  Uiso   1.00
O85    O     0.52575   0.16908   0.32793   0.00000  Uiso   1.00
O86    O     0.43809   0.08578   0.24414   0.00000  Uiso   1.00
O87    O     0.53869   0.09526   0.25367   0.00000  Uiso   1.00
O88    O     0.47425   0.16425   0.17207   0.00000  Uiso   1.00
O89    O     0.57485   0.17373   0.18160   0.00000  Uiso   1.00
O90    O     0.33890   0.12090   0.39496   0.00000  Uiso   1.00
C91    C     0.84842   0.26674   0.25156   0.00000  Uiso   1.00
C92    C     0.77804   0.16387   0.40388   0.00000  Uiso   1.00
C93    C     0.85692   0.32269   0.25236   0.00000  Uiso   1.00
C94    C     0.79952   0.16547   0.34741   0.00000  Uiso   1.00
C95    C     0.80967   0.01064   0.24784   0.00000  Uiso   1.00
C96    C     0.81821   0.06660   0.24853   0.00000  Uiso   1.00
C97    C     0.86733   0.17032   0.15291   0.00000  Uiso   1.00
C98    C     0.95982   0.22575   0.02621   0.00000  Uiso   1.00
C99    C     0.88785   0.17864   0.09774   0.00000  Uiso   1.00
C100   C     0.71570   0.13764   0.42558   0.00000  Uiso   1.00
C101   C     0.69888   0.12790   0.47805   0.00000  Uiso   1.00
C102   C     0.80588   0.16787   0.48805   0.00000  Uiso   1.00
C103   C     0.74322   0.14155   0.00849   0.00000  Uiso   1.00
C104   C     0.82142   0.18337   0.43629   0.00000  Uiso   1.00
C105   C     0.85328   0.18038   0.01771   0.00000  Uiso   1.00
C106   C     0.91309   0.21243   0.49703   0.00000  Uiso   1.00
C107   C     0.92494   0.23220   0.44809   0.00000  Uiso   1.00
C108   C     0.87957   0.21870   0.41854   0.00000  Uiso   1.00
C109   C     0.84300   0.16214   0.06752   0.00000  Uiso   1.00
C110   C     0.94708   0.20927   0.07656   0.00000  Uiso   1.00
Cu111  Cu    0.77377   0.16105   0.24435   0.00000  Uiso   1.00
Cu112  Cu    0.89290   0.17228   0.25564   0.00000  Uiso   1.00
H113   H     0.98232   0.22239   0.09948   0.00000  Uiso   1.00
H114   H     0.89026   0.23777   0.38217   0.00000  Uiso   1.00
H115   H     0.90247   0.01315   0.25664   0.00000  Uiso   1.00
H116   H     0.96436   0.10408   0.41639   0.00000  Uiso   1.00
H117   H     0.76412   0.32018   0.24358   0.00000  Uiso   1.00
H118   H     0.67025   0.20580   0.28971   0.00000  Uiso   1.00
H119   H     0.99639   0.12749   0.21033   0.00000  Uiso   1.00
H120   H     0.96944   0.25853   0.43260   0.00000  Uiso   1.00
H121   H     0.67223   0.25022   0.01055   0.00000  Uiso   1.00
H122   H     0.79969   0.13576   0.08449   0.00000  Uiso   1.00
H123   H     0.72609   0.13236   0.04837   0.00000  Uiso   1.00
H124   H     0.98455   0.10834   0.49545   0.00000  Uiso   1.00
N125   N     0.98241   0.18074   0.26416   0.00000  Uiso   1.00
N126   N     0.68426   0.15259   0.23584   0.00000  Uiso   1.00
O127   O     0.79464   0.23807   0.24633   0.00000  Uiso   1.00
O128   O     0.89524   0.24755   0.25586   0.00000  Uiso   1.00
O129   O     0.75848   0.15960   0.31839   0.00000  Uiso   1.00
O130   O     0.85908   0.16908   0.32793   0.00000  Uiso   1.00
O131   O     0.77142   0.08578   0.24414   0.00000  Uiso   1.00
O132   O     0.87203   0.09526   0.25367   0.00000  Uiso   1.00
O133   O     0.80758   0.16425   0.17207   0.00000  Uiso   1.00
O134   O     0.90819   0.17373   0.18160   0.00000  Uiso   1.00
O135   O     0.67224   0.12090   0.39496   0.00000  Uiso   1.00
C136   C     0.18176   0.60007   0.25156   0.00000  Uiso   1.00
C137   C     0.11138   0.49720   0.40388   0.00000  Uiso   1.00
C138   C     0.19026   0.65602   0.25236   0.00000  Uiso   1.00
C139   C     0.13286   0.49880   0.34741   0.00000  Uiso   1.00
C140   C     0.14300   0.34397   0.24784   0.00000  Uiso   1.00
C141   C     0.15154   0.39993   0.24853   0.00000  Uiso   1.00
C142   C     0.20066   0.50366   0.15291   0.00000  Uiso   1.00
C143   C     0.29315   0.55908   0.02621   0.00000  Uiso   1.00
C144   C     0.22118   0.51198   0.09774   0.00000  Uiso   1.00
C145   C     0.04903   0.47098   0.42558   0.00000  Uiso   1.00
C146   C     0.03222   0.46123   0.47805   0.00000  Uiso   1.00
C147   C     0.13921   0.50120   0.48805   0.00000  Uiso   1.00
C148   C     0.07655   0.47489   0.00849   0.00000  Uiso   1.00
C149   C     0.15475   0.51670   0.43629   0.00000  Uiso   1.00
C150   C     0.18661   0.51371   0.01771   0.00000  Uiso   1.00
C151   C     0.24642   0.54576   0.49703   0.00000  Uiso   1.00
C152   C     0.25827   0.56553   0.44809   0.00000  Uiso   1.00
C153   C     0.21290   0.55204   0.41854   0.00000  Uiso   1.00
C154   C     0.17634   0.49547   0.06752   0.00000  Uiso   1.00
C155   C     0.28042   0.54261   0.07656   0.00000  Uiso   1.00
Cu156  Cu    0.10710   0.49439   0.24435   0.00000  Uiso   1.00
Cu157  Cu    0.22623   0.50561   0.25564   0.00000  Uiso   1.00
H158   H     0.31566   0.55572   0.09948   0.00000  Uiso   1.00
H159   H     0.22360   0.57110   0.38217   0.00000  Uiso   1.00
H160   H     0.23580   0.34649   0.25664   0.00000  Uiso   1.00
H161   H     0.29770   0.43741   0.41639   0.00000  Uiso   1.00
H162   H     0.09746   0.65351   0.24358   0.00000  Uiso   1.00
H163   H     0.00358   0.53914   0.28971   0.00000  Uiso   1.00
H164   H     0.32972   0.46083   0.21033   0.00000  Uiso   1.00
H165   H     0.30277   0.59186   0.43260   0.00000  Uiso   1.00
H166   H     0.00556   0.58355   0.01055   0.00000  Uiso   1.00
H167   H     0.13303   0.46909   0.08449   0.00000  Uiso   1.00
H168   H     0.05942   0.46570   0.04837   0.00000  Uiso   1.00
H169   H     0.31788   0.44167   0.49545   0.00000  Uiso   1.00
N170   N     0.31574   0.51407   0.26416   0.00000  Uiso   1.00
N171   N     0.01759   0.48593   0.23584   0.00000  Uiso   1.00
O172   O     0.12797   0.57141   0.24633   0.00000  Uiso   1.00
O173   O     0.22858   0.58089   0.25586   0.00000  Uiso   1.00
O174   O     0.09181   0.49293   0.31839   0.00000  Uiso   1.00
O175   O     0.19242   0.50241   0.32793   0.00000  Uiso   1.00
O176   O     0.10476   0.41911   0.24414   0.00000  Uiso   1.00
O177   O     0.20536   0.42859   0.25367   0.00000  Uiso   1.00
O178   O     0.14092   0.49759   0.17207   0.00000  Uiso   1.00
O179   O     0.24152   0.50707   0.18160   0.00000  Uiso   1.00
O180   O     0.00557   0.45424   0.39496   0.00000  Uiso   1.00
C181   C     0.51509   0.60007   0.25156   0.00000  Uiso   1.00
C182   C     0.44471   0.49720   0.40388   0.00000  Uiso   1.00
C183   C     0.52359   0.65602   0.25236   0.00000  Uiso   1.00
C184   C     0.46619   0.49880   0.34741   0.00000  Uiso   1.00
C185   C     0.47634   0.34397   0.24784   0.00000  Uiso   1.00
C186   C     0.48487   0.39993   0.24853   0.00000  Uiso   1.00
C187   C     0.53399   0.50366   0.15291   0.00000  Uiso   1.00
C188   C     0.62648   0.55908   0.02621   0.00000  Uiso   1.00
C189   C     0.55451   0.51198   0.09774   0.00000  Uiso   1.00
C190   C     0.38237   0.47098   0.42558   0.00000  Uiso   1.00
C191   C     0.36555   0.46123   0.47805   0.00000  Uiso   1.00
C192   C     0.47255   0.50120   0.48805   0.00000  Uiso   1.00
C193   C     0.40989   0.47489   0.00849   0.00000  Uiso   1.00
C194   C     0.48809   0.51670   0.43629   0.00000  Uiso   1.00
C195   C     0.51995   0.51371   0.01771   0.00000  Uiso   1.00
C196   C     0.57976   0.54576   0.49703   0.00000  Uiso   1.00
C197   C     0.59161   0.56553   0.44809   0.00000  Uiso   1.00
C198   C     0.54624   0.55204   0.41854   0.00000  Uiso   1.00
C199   C     0.50967   0.49547   0.06752   0.00000  Uiso   1.00
C200   C     0.61375   0.54261   0.07656   0.00000  Uiso   1.00
Cu201  Cu    0.44043   0.49439   0.24435   0.00000  Uiso   1.00
Cu202  Cu    0.55957   0.50561   0.25564   0.00000  Uiso   1.00
H203   H     0.64899   0.55572   0.09948   0.00000  Uiso   1.00
H204   H     0.55693   0.57110   0.38217   0.00000  Uiso   1.00
H205   H     0.56913   0.34649   0.25664   0.00000  Uiso   1.00
H206   H     0.63103   0.43741   0.41639   0.00000  Uiso   1.00
H207   H     0.43079   0.65351   0.24358   0.00000  Uiso   1.00
H208   H     0.33691   0.53914   0.28971   0.00000  Uiso   1.00
H209   H     0.66305   0.46083   0.21033   0.00000  Uiso   1.00
H210   H     0.63611   0.59186   0.43260   0.00000  Uiso   1.00
H211   H     0.33889   0.58355   0.01055   0.00000  Uiso   1.00
H212   H     0.46636   0.46909   0.08449   0.00000  Uiso   1.00
H213   H     0.39276   0.46570   0.04837   0.00000  Uiso   1.00
H214   H     0.65121   0.44167   0.49545   0.00000  Uiso   1.00
N215   N     0.64908   0.51407   0.26416   0.00000  Uiso   1.00
N216   N     0.35092   0.48593   0.23584   0.00000  Uiso   1.00
O217   O     0.46131   0.57141   0.24633   0.00000  Uiso   1.00
O218   O     0.56191   0.58089   0.25586   0.00000  Uiso   1.00
O219   O     0.42515   0.49293   0.31839   0.00000  Uiso   1.00
O220   O     0.52575   0.50241   0.32793   0.00000  Uiso   1.00
O221   O     0.43809   0.41911   0.24414   0.00000  Uiso   1.00
O222   O     0.53869   0.42859   0.25367   0.00000  Uiso   1.00
O223   O     0.47425   0.49759   0.17207   0.00000  Uiso   1.00
O224   O     0.57485   0.50707   0.18160   0.00000  Uiso   1.00
O225   O     0.33890   0.45424   0.39496   0.00000  Uiso   1.00
C226   C     0.84842   0.60007   0.25156   0.00000  Uiso   1.00
C227   C     0.77804   0.49720   0.40388   0.00000  Uiso   1.00
C228   C     0.85692   0.65602   0.25236   0.00000  Uiso   1.00
C229   C     0.79952   0.49880   0.34741   0.00000  Uiso   1.00
C230   C     0.80967   0.34397   0.24784   0.00000  Uiso   1.00
C231   C     0.81821   0.39993   0.24853   0.00000  Uiso   1.00
C232   C     0.86733   0.50366   0.15291   0.00000  Uiso   1.00
C233   C     0.95982   0.55908   0.02621   0.00000  Uiso   1.00
C234   C     0.88785   0.51198   0.09774   0.00000  Uiso   1.00
C235   C     0.71570   0.47098   0.42558   0.00000  Uiso   1.00
C236   C     0.69888   0.46123   0.47805   0.00000  Uiso   1.00
C237   C     0.80588   0.50120   0.48805   0.00000  Uiso   1.00
C238   C     0.74322   0.47489   0.00849   0.00000  Uiso   1.00
C239   C     0.82142   0.51670   0.43629   0.00000  Uiso   1.00
C240   C     0.85328   0.51371   0.01771   0.00000  Uiso   1.00
C241   C     0.91309   0.54576   0.49703   0.00000  Uiso   1.00
C242   C     0.92494   0.56553   0.44809   0.00000  Uiso   1.00
C243   C     0.87957   0.55204   0.41854   0.00000  Uiso   1.00
C244   C     0.84300   0.49547   0.06752   0.00000  Uiso   1.00
C245   C     0.94708   0.54261   0.07656   0.00000  Uiso   1.00
Cu246  Cu    0.77377   0.49439   0.24435   0.00000  Uiso   1.00
Cu247  Cu    0.89290   0.50561   0.25564   0.00000  Uiso   1.00
H248   H     0.98232   0.55572   0.09948   0.00000  Uiso   1.00
H249   H     0.89026   0.57110   0.38217   0.00000  Uiso   1.00
H250   H     0.90247   0.34649   0.25664   0.00000  Uiso   1.00
H251   H     0.96436   0.43741   0.41639   0.00000  Uiso   1.00
H252   H     0.76412   0.65351   0.24358   0.00000  Uiso   1.00
H253   H     0.67025   0.53914   0.28971   0.00000  Uiso   1.00
H254   H     0.99639   0.46083   0.21033   0.00000  Uiso   1.00
H255   H     0.96944   0.59186   0.43260   0.00000  Uiso   1.00
H256   H     0.67223   0.58355   0.01055   0.00000  Uiso   1.00
H257   H     0.79969   0.46909   0.08449   0.00000  Uiso   1.00
H258   H     0.72609   0.46570   0.04837   0.00000  Uiso   1.00
H259   H     0.98455   0.44167   0.49545   0.00000  Uiso   1.00
N260   N     0.98241   0.51407   0.26416   0.00000  Uiso   1.00
N261   N     0.68426   0.48593   0.23584   0.00000  Uiso   1.00
O262   O     0.79464   0.57141   0.24633   0.00000  Uiso   1.00
O263   O     0.89524   0.58089   0.25586   0.00000  Uiso   1.00
O264   O     0.75848   0.49293   0.31839   0.00000  Uiso   1.00
O265   O     0.85908   0.50241   0.32793   0.00000  Uiso   1.00
O266   O     0.77142   0.41911   0.24414   0.00000  Uiso   1.00
O267   O     0.87203   0.42859   0.25367   0.00000  Uiso   1.00
O268   O     0.80758   0.49759   0.17207   0.00000  Uiso   1.00
O269   O     0.90819   0.50707   0.18160   0.00000  Uiso   1.00
O270   O     0.67224   0.45424   0.39496   0.00000  Uiso   1.00
C271   C     0.18176   0.93340   0.25156   0.00000  Uiso   1.00
C272   C     0.11138   0.83053   0.40388   0.00000  Uiso   1.00
C273   C     0.19026   0.98936   0.25236   0.00000  Uiso   1.00
C274   C     0.13286   0.83214   0.34741   0.00000  Uiso   1.00
C275   C     0.14300   0.67731   0.24784   0.00000  Uiso   1.00
C276   C     0.15154   0.73326   0.24853   0.00000  Uiso   1.00
C277   C     0.20066   0.83699   0.15291   0.00000  Uiso   1.00
C278   C     0.29315   0.89241   0.02621   0.00000  Uiso   1.00
C279   C     0.22118   0.84531   0.09774   0.00000  Uiso   1.00
C280   C     0.04903   0.80431   0.42558   0.00000  Uiso   1.00
C281   C     0.03222   0.79457   0.47805   0.00000  Uiso   1.00
C282   C     0.13921   0.83454   0.48805   0.00000  Uiso   1.00
C283   C     0.07655   0.80822   0.00849   0.00000  Uiso   1.00
C284   C     0.15475   0.85004   0.43629   0.00000  Uiso   1.00
C285   C     0.18661   0.84705   0.01771   0.00000  Uiso   1.00
C286   C     0.24642   0.87909   0.49703   0.00000  Uiso   1.00
C287   C     0.25827   0.89887   0.44809   0.00000  Uiso   1.00
C288   C     0.21290   0.88537   0.41854   0.00000  Uiso   1.00
C289   C     0.17634   0.82881   0.06752   0.00000  Uiso   1.00
C290   C     0.28042   0.87594   0.07656   0.00000  Uiso   1.00
Cu291  Cu    0.10710   0.82772   0.24435   0.00000  Uiso   1.00
Cu292  Cu    0.22623   0.83895   0.25564   0.00000  Uiso   1.00
H293   H     0.31566   0.88906   0.09948   0.00000  Uiso   1.00
H294   H     0.22360   0.90444   0.38217   0.00000  Uiso   1.00
H295   H     0.23580   0.67982   0.25664   0.00000  Uiso   1.00
H296   H     0.29770   0.77074   0.41639   0.00000  Uiso   1.00
H297   H     0.09746   0.98684   0.24358   0.00000  Uiso   1.00
H298   H     0.00358   0.87247   0.28971   0.00000  Uiso   1.00
H299   H     0.32972   0.79416   0.21033   0.00000  Uiso   1.00
H300   H     0.30277   0.92520   0.43260   0.00000  Uiso   1.00
H301   H     0.00556   0.91688   0.01055   0.00000  Uiso   1.00
H302   H     0.13303   0.80243   0.08449   0.00000  Uiso   1.00
H303   H     0.05942   0.79903   0.04837   0.00000  Uiso   1.00
H304   H     0.31788   0.77501   0.49545   0.00000  Uiso   1.00
N305   N     0.31574   0.84741   0.26416   0.00000  Uiso   1.00
N306   N     0.01759   0.81926   0.23584   0.00000  Uiso   1.00
O307   O     0.12797   0.90474   0.24633   0.00000  Uiso   1.00
O308   O     0.22858   0.91422   0.25586   0.00000  Uiso   1.00
O309   O     0.09181   0.82627   0.31839   0.00000  Uiso   1.00
O310   O     0.19242   0.83575   0.32793   0.00000  Uiso   1.00
O311   O     0.10476   0.75245   0.24414   0.00000  Uiso   1.00
O312   O     0.20536   0.76193   0.25367   0.00000  Uiso   1.00
O313   O     0.14092   0.83092   0.17207   0.00000  Uiso   1.00
O314   O     0.24152   0.84040   0.18160   0.00000  Uiso   1.00
O315   O     0.00557   0.78757   0.39496   0.00000  Uiso   1.00
C316   C     0.51509   0.93340   0.25156   0.00000  Uiso   1.00
C317   C     0.44471   0.83053   0.40388   0.00000  Uiso   1.00
C318   C     0.52359   0.98936   0.25236   0.00000  Uiso   1.00
C319   C     0.46619   0.83214   0.34741   0.00000  Uiso   1.00
C320   C     0.47634   0.67731   0.24784   0.00000  Uiso   1.00
C321   C     0.48487   0.73326   0.24853   0.00000  Uiso   1.00
C322   C     0.53399   0.83699   0.15291   0.00000  Uiso   1.00
C323   C     0.62648   0.89241   0.02621   0.00000  Uiso   1.00
C324   C     0.55451   0.84531   0.09774   0.00000  Uiso   1.00
C325   C     0.38237   0.80431   0.42558   0.00000  Uiso   1.00
C326   C     0.36555   0.79457   0.47805   0.00000  Uiso   1.00
C327   C     0.47255   0.83454   0.48805   0.00000  Uiso   1.00
C328   C     0.40989   0.80822   0.00849   0.00000  Uiso   1.00
C329   C     0.48809   0.85004   0.43629   0.00000  Uiso   1.00
C330   C     0.51995   0.84705   0.01771   0.00000  Uiso   1.00
C331   C     0.57976   0.87909   0.49703   0.00000  Uiso   1.00
C332   C     0.59161   0.89887   0.44809   0.00000  Uiso   1.00
C333   C     0.54624   0.88537   0.41854   0.00000  Uiso   1.00
C334   C     0.50967   0.82881   0.06752   0.00000  Uiso   1.00
C335   C     0.61375   0.87594   0.07656   0.00000  Uiso   1.00
Cu336  Cu    0.44043   0.82772   0.24435   0.00000  Uiso   1.00
Cu337  Cu    0.55957   0.83895   0.25564   0.00000  Uiso   1.00
H338   H     0.64899   0.88906   0.09948   0.00000  Uiso   1.00
H339   H     0.55693   0.90444   0.38217   0.00000  Uiso   1.00
H340   H     0.56913   0.67982   0.25664   0.00000  Uiso   1.00
H341   H     0.63103   0.77074   0.41639   0.00000  Uiso   1.00
H342   H     0.43079   0.98684   0.24358   0.00000  Uiso   1.00
H343   H     0.33691   0.87247   0.28971   0.00000  Uiso   1.00
H344   H     0.66305   0.79416   0.21033   0.00000  Uiso   1.00
H345   H     0.63611   0.92520   0.43260   0.00000  Uiso   1.00
H346   H     0.33889   0.91688   0.01055   0.00000  Uiso   1.00
H347   H     0.46636   0.80243   0.08449   0.00000  Uiso   1.00
H348   H     0.39276   0.79903   0.04837   0.00000  Uiso   1.00
H349   H     0.65121   0.77501   0.49545   0.00000  Uiso   1.00
N350   N     0.64908   0.84741   0.26416   0.00000  Uiso   1.00
N351   N     0.35092   0.81926   0.23584   0.00000  Uiso   1.00
O352   O     0.46131   0.90474   0.24633   0.00000  Uiso   1.00
O353   O     0.56191   0.91422   0.25586   0.00000  Uiso   1.00
O354   O     0.42515   0.82627   0.31839   0.00000  Uiso   1.00
O355   O     0.52575   0.83575   0.32793   0.00000  Uiso   1.00
O356   O     0.43809   0.75245   0.24414   0.00000  Uiso   1.00
O357   O     0.53869   0.76193   0.25367   0.00000  Uiso   1.00
O358   O     0.47425   0.83092   0.17207   0.00000  Uiso   1.00
O359   O     0.57485   0.84040   0.18160   0.00000  Uiso   1.00
O360   O     0.33890   0.78757   0.39496   0.00000  Uiso   1.00
C361   C     0.84842   0.93340   0.25156   0.00000  Uiso   1.00
C362   C     0.77804   0.83053   0.40388   0.00000  Uiso   1.00
C363   C     0.85692   0.98936   0.25236   0.00000  Uiso   1.00
C364   C     0.79952   0.83214   0.34741   0.00000  Uiso   1.00
C365   C     0.80967   0.67731   0.24784   0.00000  Uiso   1.00
C366   C     0.81821   0.73326   0.24853   0.00000  Uiso   1.00
C367   C     0.86733   0.83699   0.15291   0.00000  Uiso   1.00
C368   C     0.95982   0.89241   0.02621   0.00000  Uiso   1.00
C369   C     0.88785   0.84531   0.09774   0.00000  Uiso   1.00
C370   C     0.71570   0.80431   0.42558   0.00000  Uiso   1.00
C371   C     0.69888   0.79457   0.47805   0.00000  Uiso   1.00
C372   C     0.80588   0.83454   0.48805   0.00000  Uiso   1.00
C373   C     0.74322   0.80822   0.00849   0.00000  Uiso   1.00
C374   C     0.82142   0.85004   0.43629   0.00000  Uiso   1.00
C375   C     0.85328   0.84705   0.01771   0.00000  Uiso   1.00
C376   C     0.91309   0.87909   0.49703   0.00000  Uiso   1.00
C377   C     0.92494   0.89887   0.44809   0.00000  Uiso   1.00
C378   C     0.87957   0.88537   0.41854   0.00000  Uiso   1.00
C379   C     0.84300   0.82881   0.06752   0.00000  Uiso   1.00
C380   C     0.94708   0.87594   0.07656   0.00000  Uiso   1.00
Cu381  Cu    0.77377   0.82772   0.24435   0.00000  Uiso   1.00
Cu382  Cu    0.89290   0.83895   0.25564   0.00000  Uiso   1.00
H383   H     0.98232   0.88906   0.09948   0.00000  Uiso   1.00
H384   H     0.89026   0.90444   0.38217   0.00000  Uiso   1.00
H385   H     0.90247   0.67982   0.25664   0.00000  Uiso   1.00
H386   H     0.96436   0.77074   0.41639   0.00000  Uiso   1.00
H387   H     0.76412   0.98684   0.24358   0.00000  Uiso   1.00
H388   H     0.67025   0.87247   0.28971   0.00000  Uiso   1.00
H389   H     0.99639   0.79416   0.21033   0.00000  Uiso   1.00
H390   H     0.96944   0.92520   0.43260   0.00000  Uiso   1.00
H391   H     0.67223   0.91688   0.01055   0.00000  Uiso   1.00
H392   H     0.79969   0.80243   0.08449   0.00000  Uiso   1.00
H393   H     0.72609   0.79903   0.04837   0.00000  Uiso   1.00
H394   H     0.98455   0.77501   0.49545   0.00000  Uiso   1.00
N395   N     0.98241   0.84741   0.26416   0.00000  Uiso   1.00
N396   N     0.68426   0.81926   0.23584   0.00000  Uiso   1.00
O397   O     0.79464   0.90474   0.24633   0.00000  Uiso   1.00
O398   O     0.89524   0.91422   0.25586   0.00000  Uiso   1.00
O399   O     0.75848   0.82627   0.31839   0.00000  Uiso   1.00
O400   O     0.85908   0.83575   0.32793   0.00000  Uiso   1.00
O401   O     0.77142   0.75245   0.24414   0.00000  Uiso   1.00
O402   O     0.87203   0.76193   0.25367   0.00000  Uiso   1.00
O403   O     0.80758   0.83092   0.17207   0.00000  Uiso   1.00
O404   O     0.90819   0.84040   0.18160   0.00000  Uiso   1.00
O405   O     0.67224   0.78757   0.39496   0.00000  Uiso   1.00
C406   C     0.18176   0.26674   0.75156   0.00000  Uiso   1.00
C407   C     0.11138   0.16387   0.90388   0.00000  Uiso   1.00
C408   C     0.19026   0.32269   0.75236   0.00000  Uiso   1.00
C409   C     0.13286   0.16547   0.84741   0.00000  Uiso   1.00
C410   C     0.14300   0.01064   0.74784   0.00000  Uiso   1.00
C411   C     0.15154   0.06660   0.74853   0.00000  Uiso   1.00
C412   C     0.20066   0.17032   0.65291   0.00000  Uiso   1.00
C413   C     0.29315   0.22575   0.52621   0.00000  Uiso   1.00
C414   C     0.22118   0.17864   0.59774   0.00000  Uiso   1.00
C415   C     0.04903   0.13764   0.92558   0.00000  Uiso   1.00
C416   C     0.03222   0.12790   0.97805   0.00000  Uiso   1.00
C417   C     0.13921   0.16787   0.98805   0.00000  Uiso   1.00
C418   C     0.07655   0.14155   0.50849   0.00000  Uiso   1.00
C419   C     0.15475   0.18337   0.93629   0.00000  Uiso   1.00
C420   C     0.18661   0.18038   0.51771   0.00000  Uiso   1.00
C421   C     0.24642   0.21243   0.99703   0.00000  Uiso   1.00
C422   C     0.25827   0.23220   0.94809   0.00000  Uiso   1.00
C423   C     0.21290   0.21870   0.91854   0.00000  Uiso   1.00
C424   C     0.17634   0.16214   0.56752   0.00000  Uiso   1.00
C425   C     0.28042   0.20927   0.57656   0.00000  Uiso   1.00
Cu426  Cu    0.10710   0.16105   0.74435   0.00000  Uiso   1.00
Cu427  Cu    0.22623   0.17228   0.75564   0.00000  Uiso   1.00
H428   H     0.31566   0.22239   0.59948   0.00000  Uiso   1.00
H429   H     0.22360   0.23777   0.88217   0.00000  Uiso   1.00
H430   H     0.23580   0.01315   0.75664   0.00000  Uiso   1.00
H431   H     0.29770   0.10408   0.91639   0.00000  Uiso   1.00
H432   H     0.09746   0.32018   0.74358   0.00000  Uiso   1.00
H433   H     0.00358   0.20580   0.78971   0.00000  Uiso   1.00
H434   H     0.32972   0.12749   0.71033   0.00000  Uiso   1.00
H435   H     0.30277   0.25853   0.93260   0.00000  Uiso   1.00
H436   H     0.00556   0.25022   0.51055   0.00000  Uiso   1.00
H437   H     0.13303   0.13576   0.58449   0.00000  Uiso   1.00
H438   H     0.05942   0.13236   0.54837   0.00000  Uiso   1.00
H439   H     0.31788   0.10834   0.99545   0.00000  Uiso   1.00
N440   N     0.31574   0.18074   0.76416   0.00000  Uiso   1.00
N441   N     0.01759   0.15259   0.73584   0.00000  Uiso   1.00
O442   O     0.12797   0.23807   0.74633   0.00000  Uiso   1.00
O443   O     0.22858   0.24755   0.75586   0.00000  Uiso   1.00
O444   O     0.09181   0.15960   0.81839   0.00000  Uiso   1.00
O445   O     0.19242   0.16908   0.82793   0.00000  Uiso   1.00
O446   O     0.10476   0.08578   0.74414   0.00000  Uiso   1.00
O447   O     0.20536   0.09526   0.75367   0.00000  Uiso   1.00
O448   O     0.14092   0.16425   0.67207   0.00000  Uiso   1.00
O449   O     0.24152   0.17373   0.68160   0.00000  Uiso   1.00
O450   O     0.00557   0.12090   0.89496   0.00000  Uiso   1.00
C451   C     0.51509   0.26674   0.75156   0.00000  Uiso   1.00
C452   C     0.44471   0.16387   0.90388   0.00000  Uiso   1.00
C453   C     0.52359   0.32269   0.75236   0.00000  Uiso   1.00
C454   C     0.46619   0.16547   0.84741   0.00000  Uiso   1.00
C455   C     0.47634   0.01064   0.74784   0.00000  Uiso   1.00
C456   C     0.48487   0.06660   0.74853   0.00000  Uiso   1.00
C457   C     0.53399   0.17032   0.65291   0.00000  Uiso   1.00
C458   C     0.62648   0.22575   0.52621   0.00000  Uiso   1.00
C459   C     0.55451   0.17864   0.59774   0.00000  Uiso   1.00
C460   C     0.38237   0.13764   0.92558   0.00000  Uiso   1.00
C461   C     0.36555   0.12790   0.97805   0.00000  Uiso   1.00
C462   C     0.47255   0.16787   0.98805   0.00000  Uiso   1.00
C463   C     0.40989   0.14155   0.50849   0.00000  Uiso   1.00
C464   C     0.48809   0.18337   0.93629   0.00000  Uiso   1.00
C465   C     0.51995   0.18038   0.51771   0.00000  Uiso   1.00
C466   C     0.57976   0.21243   0.99703   0.00000  Uiso   1.00
C467   C     0.59161   0.23220   0.94809   0.00000  Uiso   1.00
C468   C     0.54624   0.21870   0.91854   0.00000  Uiso   1.00
C469   C     0.50967   0.16214   0.56752   0.00000  Uiso   1.00
C470   C     0.61375   0.20927   0.57656   0.00000  Uiso   1.00
Cu471  Cu    0.44043   0.16105   0.74435   0.00000  Uiso   1.00
Cu472  Cu    0.55957   0.17228   0.75564   0.00000  Uiso   1.00
H473   H     0.64899   0.22239   0.59948   0.00000  Uiso   1.00
H474   H     0.55693   0.23777   0.88217   0.00000  Uiso   1.00
H475   H     0.56913   0.01315   0.75664   0.00000  Uiso   1.00
H476   H     0.63103   0.10408   0.91639   0.00000  Uiso   1.00
H477   H     0.43079   0.32018   0.74358   0.00000  Uiso   1.00
H478   H     0.33691   0.20580   0.78971   0.00000  Uiso   1.00
H479   H     0.66305   0.12749   0.71033   0.00000  Uiso   1.00
H480   H     0.63611   0.25853   0.93260   0.00000  Uiso   1.00
H481   H     0.33889   0.25022   0.51055   0.00000  Uiso   1.00
H482   H     0.46636   0.13576   0.58449   0.00000  Uiso   1.00
H483   H     0.39276   0.13236   0.54837   0.00000  Uiso   1.00
H484   H     0.65121   0.10834   0.99545   0.00000  Uiso   1.00
N485   N     0.64908   0.18074   0.76416   0.00000  Uiso   1.00
N486   N     0.35092   0.15259   0.73584   0.00000  Uiso   1.00
O487   O     0.46131   0.23807   0.74633   0.00000  Uiso   1.00
O488   O     0.56191   0.24755   0.75586   0.00000  Uiso   1.00
O489   O     0.42515   0.15960   0.81839   0.00000  Uiso   1.00
O490   O     0.52575   0.16908   0.82793   0.00000  Uiso   1.00
O491   O     0.43809   0.08578   0.74414   0.00000  Uiso   1.00
O492   O     0.53869   0.09526   0.75367   0.00000  Uiso   1.00
O493   O     0.47425   0.16425   0.67207   0.00000  Uiso   1.00
O494   O     0.57485   0.17373   0.68160   0.00000  Uiso   1.00
O495   O     0.33890   0.12090   0.89496   0.00000  Uiso   1.00
C496   C     0.84842   0.26674   0.75156   0.00000  Uiso   1.00
C497   C     0.77804   0.16387   0.90388   0.00000  Uiso   1.00
C498   C     0.85692   0.32269   0.75236   0.00000  Uiso   1.00
C499   C     0.79952   0.16547   0.84741   0.00000  Uiso   1.00
C500   C     0.80967   0.01064   0.74784   0.00000  Uiso   1.00
C501   C     0.81821   0.06660   0.74853   0.00000  Uiso   1.00
C502   C     0.86733   0.17032   0.65291   0.00000  Uiso   1.00
C503   C     0.95982   0.22575   0.52621   0.00000  Uiso   1.00
C504   C     0.88785   0.17864   0.59774   0.00000  Uiso   1.00
C505   C     0.71570   0.13764   0.92558   0.00000  Uiso   1.00
C506   C     0.69888   0.12790   0.97805   0.00000  Uiso   1.00
C507   C     0.80588   0.16787   0.98805   0.00000  Uiso   1.00
C508   C     0.74322   0.14155   0.50849   0.00000  Uiso   1.00
C509   C     0.82142   0.18337   0.93629   0.00000  Uiso   1.00
C510   C     0.85328   0.18038   0.51771   0.00000  Uiso   1.00
C511   C     0.91309   0.21243   0.99703   0.00000  Uiso   1.00
C512   C     0.92494   0.23220   0.94809   0.00000  Uiso   1.00
C513   C     0.87957   0.21870   0.91854   0.00000  Uiso   1.00
C514   C     0.84300   0.16214   0.56752   0.00000  Uiso   1.00
C515   C     0.94708   0.20927   0.57656   0.00000  Uiso   1.00
Cu516  Cu    0.77377   0.16105   0.74435   0.00000  Uiso   1.00
Cu517  Cu    0.89290   0.17228   0.75564   0.00000  Uiso   1.00
H518   H     0.98232   0.22239   0.59948   0.00000  Uiso   1.00
H519   H     0.89026   0.23777   0.88217   0.00000  Uiso   1.00
H520   H     0.90247   0.01315   0.75664   0.00000  Uiso   1.00
H521   H     0.96436   0.10408   0.91639   0.00000  Uiso   1.00
H522   H     0.76412   0.32018   0.74358   0.00000  Uiso   1.00
H523   H     0.67025   0.20580   0.78971   0.00000  Uiso   1.00
H524   H     0.99639   0.12749   0.71033   0.00000  Uiso   1.00
H525   H     0.96944   0.25853   0.93260   0.00000  Uiso   1.00
H526   H     0.67223   0.25022   0.51055   0.00000  Uiso   1.00
H527   H     0.79969   0.13576   0.58449   0.00000  Uiso   1.00
H528   H     0.72609   0.13236   0.54837   0.00000  Uiso   1.00
H529   H     0.98455   0.10834   0.99545   0.00000  Uiso   1.00
N530   N     0.98241   0.18074   0.76416   0.00000  Uiso   1.00
N531   N     0.68426   0.15259   0.73584   0.00000  Uiso   1.00
O532   O     0.79464   0.23807   0.74633   0.00000  Uiso   1.00
O533   O     0.89524   0.24755   0.75586   0.00000  Uiso   1.00
O534   O     0.75848   0.15960   0.81839   0.00000  Uiso   1.00
O535   O     0.85908   0.16908   0.82793   0.00000  Uiso   1.00
O536   O     0.77142   0.08578   0.74414   0.00000  Uiso   1.00
O537   O     0.87203   0.09526   0.75367   0.00000  Uiso   1.00
O538   O     0.80758   0.16425   0.67207   0.00000  Uiso   1.00
O539   O     0.90819   0.17373   0.68160   0.00000  Uiso   1.00
O540   O     0.67224   0.12090   0.89496   0.00000  Uiso   1.00
C541   C     0.18176   0.60007   0.75156   0.00000  Uiso   1.00
C542   C     0.11138   0.49720   0.90388   0.00000  Uiso   1.00
C543   C     0.19026   0.65602   0.75236   0.00000  Uiso   1.00
C544   C     0.13286   0.49880   0.84741   0.00000  Uiso   1.00
C545   C     0.14300   0.34397   0.74784   0.00000  Uiso   1.00
C546   C     0.15154   0.39993   0.74853   0.00000  Uiso   1.00
C547   C     0.20066   0.50366   0.65291   0.00000  Uiso   1.00
C548   C     0.29315   0.55908   0.52621   0.00000  Uiso   1.00
C549   C     0.22118   0.51198   0.59774   0.00000  Uiso   1.00
C550   C     0.04903   0.47098   0.92558   0.00000  Uiso   1.00
C551   C     0.03222   0.46123   0.97805   0.00000  Uiso   1.00
C552   C     0.13921   0.50120   0.98805   0.00000  Uiso   1.00
C553   C     0.07655   0.47489   0.50849   0.00000  Uiso   1.00
C554   C     0.15475   0.51670   0.93629   0.00000  Uiso   1.00
C555   C     0.18661   0.51371   0.51771   0.00000  Uiso   1.00
C556   C     0.24642   0.54576   0.99703   0.00000  Uiso   1.00
C557   C     0.25827   0.56553   0.94809   0.00000  Uiso   1.00
C558   C     0.21290   0.55204   0.91854   0.00000  Uiso   1.00
C559   C     0.17634   0.49547   0.56752   0.00000  Uiso   1.00
C560   C     0.28042   0.54261   0.57656   0.00000  Uiso   1.00
Cu561  Cu    0.10710   0.49439   0.74435   0.00000  Uiso   1.00
Cu562  Cu    0.22623   0.50561   0.75564   0.00000  Uiso   1.00
H563   H     0.31566   0.55572   0.59948   0.00000  Uiso   1.00
H564   H     0.22360   0.57110   0.88217   0.00000  Uiso   1.00
H565   H     0.23580   0.34649   0.75664   0.00000  Uiso   1.00
H566   H     0.29770   0.43741   0.91639   0.00000  Uiso   1.00
H567   H     0.09746   0.65351   0.74358   0.00000  Uiso   1.00
H568   H     0.00358   0.53914   0.78971   0.00000  Uiso   1.00
H569   H     0.32972   0.46083   0.71033   0.00000  Uiso   1.00
H570   H     0.30277   0.59186   0.93260   0.00000  Uiso   1.00
H571   H     0.00556   0.58355   0.51055   0.00000  Uiso   1.00
H572   H     0.13303   0.46909   0.58449   0.00000  Uiso   1.00
H573   H     0.05942   0.46570   0.54837   0.00000  Uiso   1.00
H574   H     0.31788   0.44167   0.99545   0.00000  Uiso   1.00
N575   N     0.31574   0.51407   0.76416   0.00000  Uiso   1.00
N576   N     0.01759   0.48593   0.73584   0.00000  Uiso   1.00
O577   O     0.12797   0.57141   0.74633   0.00000  Uiso   1.00
O578   O     0.22858   0.58089   0.75586   0.00000  Uiso   1.00
O579   O     0.09181   0.49293   0.81839   0.00000  Uiso   1.00
O580   O     0.19242   0.50241   0.82793   0.00000  Uiso   1.00
O581   O     0.10476   0.41911   0.74414   0.00000  Uiso   1.00
O582   O     0.20536   0.42859   0.75367   0.00000  Uiso   1.00
O583   O     0.14092   0.49759   0.67207   0.00000  Uiso   1.00
O584   O     0.24152   0.50707   0.68160   0.00000  Uiso   1.00
O585   O     0.00557   0.45424   0.89496   0.00000  Uiso   1.00
C586   C     0.51509   0.60007   0.75156   0.00000  Uiso   1.00
C587   C     0.44471   0.49720   0.90388   0.00000  Uiso   1.00
C588   C     0.52359   0.65602   0.75236   0.00000  Uiso   1.00
C589   C     0.46619   0.49880   0.84741   0.00000  Uiso   1.00
C590   C     0.47634   0.34397   0.74784   0.00000  Uiso   1.00
C591   C     0.48487   0.39993   0.74853   0.00000  Uiso   1.00
C592   C     0.53399   0.50366   0.65291   0.00000  Uiso   1.00
C593   C     0.62648   0.55908   0.52621   0.00000  Uiso   1.00
C594   C     0.55451   0.51198   0.59774   0.00000  Uiso   1.00
C595   C     0.38237   0.47098   0.92558   0.00000  Uiso   1.00
C596   C     0.36555   0.46123   0.97805   0.00000  Uiso   1.00
C597   C     0.47255   0.50120   0.98805   0.00000  Uiso   1.00
C598   C     0.40989   0.47489   0.50849   0.00000  Uiso   1.00
C599   C     0.48809   0.51670   0.93629   0.00000  Uiso   1.00
C600   C     0.51995   0.51371   0.51771   0.00000  Uiso   1.00
C601   C     0.57976   0.54576   0.99703   0.00000  Uiso   1.00
C602   C     0.59161   0.56553   0.94809   0.00000  Uiso   1.00
C603   C     0.54624   0.55204   0.91854   0.00000  Uiso   1.00
C604   C     0.50967   0.49547   0.56752   0.00000  Uiso   1.00
C605   C     0.61375   0.54261   0.57656   0.00000  Uiso   1.00
Cu606  Cu    0.44043   0.49439   0.74435   0.00000  Uiso   1.00
Cu607  Cu    0.55957   0.50561   0.75564   0.00000  Uiso   1.00
H608   H     0.64899   0.55572   0.59948   0.00000  Uiso   1.00
H609   H     0.55693   0.57110   0.88217   0.00000  Uiso   1.00
H610   H     0.56913   0.34649   0.75664   0.00000  Uiso   1.00
H611   H     0.63103   0.43741   0.91639   0.00000  Uiso   1.00
H612   H     0.43079   0.65351   0.74358   0.00000  Uiso   1.00
H613   H     0.33691   0.53914   0.78971   0.00000  Uiso   1.00
H614   H     0.66305   0.46083   0.71033   0.00000  Uiso   1.00
H615   H     0.63611   0.59186   0.93260   0.00000  Uiso   1.00
H616   H     0.33889   0.58355   0.51055   0.00000  Uiso   1.00
H617   H     0.46636   0.46909   0.58449   0.00000  Uiso   1.00
H618   H     0.39276   0.46570   0.54837   0.00000  Uiso   1.00
H619   H     0.65121   0.44167   0.99545   0.00000  Uiso   1.00
N620   N     0.64908   0.51407   0.76416   0.00000  Uiso   1.00
N621   N     0.35092   0.48593   0.73584   0.00000  Uiso   1.00
O622   O     0.46131   0.57141   0.74633   0.00000  Uiso   1.00
O623   O     0.56191   0.58089   0.75586   0.00000  Uiso   1.00
O624   O     0.42515   0.49293   0.81839   0.00000  Uiso   1.00
O625   O     0.52575   0.50241   0.82793   0.00000  Uiso   1.00
O626   O     0.43809   0.41911   0.74414   0.00000  Uiso   1.00
O627   O     0.53869   0.42859   0.75367   0.00000  Uiso   1.00
O628   O     0.47425   0.49759   0.67207   0.00000  Uiso   1.00
O629   O     0.57485   0.50707   0.68160   0.00000  Uiso   1.00
O630   O     0.33890   0.45424   0.89496   0.00000  Uiso   1.00
C631   C     0.84842   0.60007   0.75156   0.00000  Uiso   1.00
C632   C     0.77804   0.49720   0.90388   0.00000  Uiso   1.00
C633   C     0.85692   0.65602   0.75236   0.00000  Uiso   1.00
C634   C     0.79952   0.49880   0.84741   0.00000  Uiso   1.00
C635   C     0.80967   0.34397   0.74784   0.00000  Uiso   1.00
C636   C     0.81821   0.39993   0.74853   0.00000  Uiso   1.00
C637   C     0.86733   0.50366   0.65291   0.00000  Uiso   1.00
C638   C     0.95982   0.55908   0.52621   0.00000  Uiso   1.00
C639   C     0.88785   0.51198   0.59774   0.00000  Uiso   1.00
C640   C     0.71570   0.47098   0.92558   0.00000  Uiso   1.00
C641   C     0.69888   0.46123   0.97805   0.00000  Uiso   1.00
C642   C     0.80588   0.50120   0.98805   0.00000  Uiso   1.00
C643   C     0.74322   0.47489   0.50849   0.00000  Uiso   1.00
C644   C     0.82142   0.51670   0.93629   0.00000  Uiso   1.00
C645   C     0.85328   0.51371   0.51771   0.00000  Uiso   1.00
C646   C     0.91309   0.54576   0.99703   0.00000  Uiso   1.00
C647   C     0.92494   0.56553   0.94809   0.00000  Uiso   1.00
C648   C     0.87957   0.55204   0.91854   0.00000  Uiso   1.00
C649   C     0.84300   0.49547   0.56752   0.00000  Uiso   1.00
C650   C     0.94708   0.54261   0.57656   0.00000  Uiso   1.00
Cu651  Cu    0.77377   0.49439   0.74435   0.00000  Uiso   1.00
Cu652  Cu    0.89290   0.50561   0.75564   0.00000  Uiso   1.00
H653   H     0.98232   0.55572   0.59948   0.00000  Uiso   1.00
H654   H     0.89026   0.57110   0.88217   0.00000  Uiso   1.00
H655   H     0.90247   0.34649   0.75664   0.00000  Uiso   1.00
H656   H     0.96436   0.43741   0.91639   0.00000  Uiso   1.00
H657   H     0.76412   0.65351   0.74358   0.00000  Uiso   1.00
H658   H     0.67025   0.53914   0.78971   0.00000  Uiso   1.00
H659   H     0.99639   0.46083   0.71033   0.00000  Uiso   1.00
H660   H     0.96944   0.59186   0.93260   0.00000  Uiso   1.00
H661   H     0.67223   0.58355   0.51055   0.00000  Uiso   1.00
H662   H     0.79969   0.46909   0.58449   0.00000  Uiso   1.00
H663   H     0.72609   0.46570   0.54837   0.00000  Uiso   1.00
H664   H     0.98455   0.44167   0.99545   0.00000  Uiso   1.00
N665   N     0.98241   0.51407   0.76416   0.00000  Uiso   1.00
N666   N     0.68426   0.48593   0.73584   0.00000  Uiso   1.00
O667   O     0.79464   0.57141   0.74633   0.00000  Uiso   1.00
O668   O     0.89524   0.58089   0.75586   0.00000  Uiso   1.00
O669   O     0.75848   0.49293   0.81839   0.00000  Uiso   1.00
O670   O     0.85908   0.50241   0.82793   0.00000  Uiso   1.00
O671   O     0.77142   0.41911   0.74414   0.00000  Uiso   1.00
O672   O     0.87203   0.42859   0.75367   0.00000  Uiso   1.00
O673   O     0.80758   0.49759   0.67207   0.00000  Uiso   1.00
O674   O     0.90819   0.50707   0.68160   0.00000  Uiso   1.00
O675   O     0.67224   0.45424   0.89496   0.00000  Uiso   1.00
C676   C     0.18176   0.93340   0.75156   0.00000  Uiso   1.00
C677   C     0.11138   0.83053   0.90388   0.00000  Uiso   1.00
C678   C     0.19026   0.98936   0.75236   0.00000  Uiso   1.00
C679   C     0.13286   0.83214   0.84741   0.00000  Uiso   1.00
C680   C     0.14300   0.67731   0.74784   0.00000  Uiso   1.00
C681   C     0.15154   0.73326   0.74853   0.00000  Uiso   1.00
C682   C     0.20066   0.83699   0.65291   0.00000  Uiso   1.00
C683   C     0.29315   0.89241   0.52621   0.00000  Uiso   1.00
C684   C     0.22118   0.84531   0.59774   0.00000  Uiso   1.00
C685   C     0.04903   0.80431   0.92558   0.00000  Uiso   1.00
C686   C     0.03222   0.79457   0.97805   0.00000  Uiso   1.00
C687   C     0.13921   0.83454   0.98805   0.00000  Uiso   1.00
C688   C     0.07655   0.80822   0.50849   0.00000  Uiso   1.00
C689   C     0.15475   0.85004   0.93629   0.00000  Uiso   1.00
C690   C     0.18661   0.84705   0.51771   0.00000  Uiso   1.00
C691   C     0.24642   0.87909   0.99703   0.00000  Uiso   1.00
C692   C     0.25827   0.89887   0.94809   0.00000  Uiso   1.00
C693   C     0.21290   0.88537   0.91854   0.00000  Uiso   1.00
C694   C     0.17634   0.82881   0.56752   0.00000  Uiso   1.00
C695   C     0.28042   0.87594   0.57656   0.00000  Uiso   1.00
Cu696  Cu    0.10710   0.82772   0.74435   0.00000  Uiso   1.00
Cu697  Cu    0.22623   0.83895   0.75564   0.00000  Uiso   1.00
H698   H     0.31566   0.88906   0.59948   0.00000  Uiso   1.00
H699   H     0.22360   0.90444   0.88217   0.00000  Uiso   1.00
H700   H     0.23580   0.67982   0.75664   0.00000  Uiso   1.00
H701   H     0.29770   0.77074   0.91639   0.00000  Uiso   1.00
H702   H     0.09746   0.98684   0.74358   0.00000  Uiso   1.00
H703   H     0.00358   0.87247   0.78971   0.00000  Uiso   1.00
H704   H     0.32972   0.79416   0.71033   0.00000  Uiso   1.00
H705   H     0.30277   0.92520   0.93260   0.00000  Uiso   1.00
H706   H     0.00556   0.91688   0.51055   0.00000  Uiso   1.00
H707   H     0.13303   0.80243   0.58449   0.00000  Uiso   1.00
H708   H     0.05942   0.79903   0.54837   0.00000  Uiso   1.00
H709   H     0.31788   0.77501   0.99545   0.00000  Uiso   1.00
N710   N     0.31574   0.84741   0.76416   0.00000  Uiso   1.00
N711   N     0.01759   0.81926   0.73584   0.00000  Uiso   1.00
O712   O     0.12797   0.90474   0.74633   0.00000  Uiso   1.00
O713   O     0.22858   0.91422   0.75586   0.00000  Uiso   1.00
O714   O     0.09181   0.82627   0.81839   0.00000  Uiso   1.00
O715   O     0.19242   0.83575   0.82793   0.00000  Uiso   1.00
O716   O     0.10476   0.75245   0.74414   0.00000  Uiso   1.00
O717   O     0.20536   0.76193   0.75367   0.00000  Uiso   1.00
O718   O     0.14092   0.83092   0.67207   0.00000  Uiso   1.00
O719   O     0.24152   0.84040   0.68160   0.00000  Uiso   1.00
O720   O     0.00557   0.78757   0.89496   0.00000  Uiso   1.00
C721   C     0.51509   0.93340   0.75156   0.00000  Uiso   1.00
C722   C     0.44471   0.83053   0.90388   0.00000  Uiso   1.00
C723   C     0.52359   0.98936   0.75236   0.00000  Uiso   1.00
C724   C     0.46619   0.83214   0.84741   0.00000  Uiso   1.00
C725   C     0.47634   0.67731   0.74784   0.00000  Uiso   1.00
C726   C     0.48487   0.73326   0.74853   0.00000  Uiso   1.00
C727   C     0.53399   0.83699   0.65291   0.00000  Uiso   1.00
C728   C     0.62648   0.89241   0.52621   0.00000  Uiso   1.00
C729   C     0.55451   0.84531   0.59774   0.00000  Uiso   1.00
C730   C     0.38237   0.80431   0.92558   0.00000  Uiso   1.00
C731   C     0.36555   0.79457   0.97805   0.00000  Uiso   1.00
C732   C     0.47255   0.83454   0.98805   0.00000  Uiso   1.00
C733   C     0.40989   0.80822   0.50849   0.00000  Uiso   1.00
C734   C     0.48809   0.85004   0.93629   0.00000  Uiso   1.00
C735   C     0.51995   0.84705   0.51771   0.00000  Uiso   1.00
C736   C     0.57976   0.87909   0.99703   0.00000  Uiso   1.00
C737   C     0.59161   0.89887   0.94809   0.00000  Uiso   1.00
C738   C     0.54624   0.88537   0.91854   0.00000  Uiso   1.00
C739   C     0.50967   0.82881   0.56752   0.00000  Uiso   1.00
C740   C     0.61375   0.87594   0.57656   0.00000  Uiso   1.00
Cu741  Cu    0.44043   0.82772   0.74435   0.00000  Uiso   1.00
Cu742  Cu    0.55957   0.83895   0.75564   0.00000  Uiso   1.00
H743   H     0.64899   0.88906   0.59948   0.00000  Uiso   1.00
H744   H     0.55693   0.90444   0.88217   0.00000  Uiso   1.00
H745   H     0.56913   0.67982   0.75664   0.00000  Uiso   1.00
H746   H     0.63103   0.77074   0.91639   0.00000  Uiso   1.00
H747   H     0.43079   0.98684   0.74358   0.00000  Uiso   1.00
H748   H     0.33691   0.87247   0.78971   0.00000  Uiso   1.00
H749   H     0.66305   0.79416   0.71033   0.00000  Uiso   1.00
H750   H     0.63611   0.92520   0.93260   0.00000  Uiso   1.00
H751   H     0.33889   0.91688   0.51055   0.00000  Uiso   1.00
H752   H     0.46636   0.80243   0.58449   0.00000  Uiso   1.00
H753   H     0.39276   0.79903   0.54837   0.00000  Uiso   1.00
H754   H     0.65121   0.77501   0.99545   0.00000  Uiso   1.00
N755   N     0.64908   0.84741   0.76416   0.00000  Uiso   1.00
N756   N     0.35092   0.81926   0.73584   0.00000  Uiso   1.00
O757   O     0.46131   0.90474   0.74633   0.00000  Uiso   1.00
O758   O     0.56191   0.91422   0.75586   0.00000  Uiso   1.00
O759   O     0.42515   0.82627   0.81839   0.00000  Uiso   1.00
O760   O     0.52575   0.83575   0.82793   0.00000  Uiso   1.00
O761   O     0.43809   0.75245   0.74414   0.00000  Uiso   1.00
O762   O     0.53869   0.76193   0.75367   0.00000  Uiso   1.00
O763   O     0.47425   0.83092   0.67207   0.00000  Uiso   1.00
O764   O     0.57485   0.84040   0.68160   0.00000  Uiso   1.00
O765   O     0.33890   0.78757   0.89496   0.00000  Uiso   1.00
C766   C     0.84842   0.93340   0.75156   0.00000  Uiso   1.00
C767   C     0.77804   0.83053   0.90388   0.00000  Uiso   1.00
C768   C     0.85692   0.98936   0.75236   0.00000  Uiso   1.00
C769   C     0.79952   0.83214   0.84741   0.00000  Uiso   1.00
C770   C     0.80967   0.67731   0.74784   0.00000  Uiso   1.00
C771   C     0.81821   0.73326   0.74853   0.00000  Uiso   1.00
C772   C     0.86733   0.83699   0.65291   0.00000  Uiso   1.00
C773   C     0.95982   0.89241   0.52621   0.00000  Uiso   1.00
C774   C     0.88785   0.84531   0.59774   0.00000  Uiso   1.00
C775   C     0.71570   0.80431   0.92558   0.00000  Uiso   1.00
C776   C     0.69888   0.79457   0.97805   0.00000  Uiso   1.00
C777   C     0.80588   0.83454   0.98805   0.00000  Uiso   1.00
C778   C     0.74322   0.80822   0.50849   0.00000  Uiso   1.00
C779   C     0.82142   0.85004   0.93629   0.00000  Uiso   1.00
C780   C     0.85328   0.84705   0.51771   0.00000  Uiso   1.00
C781   C     0.91309   0.87909   0.99703   0.00000  Uiso   1.00
C782   C     0.92494   0.89887   0.94809   0.00000  Uiso   1.00
C783   C     0.87957   0.88537   0.91854   0.00000  Uiso   1.00
C784   C     0.84300   0.82881   0.56752   0.00000  Uiso   1.00
C785   C     0.94708   0.87594   0.57656   0.00000  Uiso   1.00
Cu786  Cu    0.77377   0.82772   0.74435   0.00000  Uiso   1.00
Cu787  Cu    0.89290   0.83895   0.75564   0.00000  Uiso   1.00
H788   H     0.98232   0.88906   0.59948   0.00000  Uiso   1.00
H789   H     0.89026   0.90444   0.88217   0.00000  Uiso   1.00
H790   H     0.90247   0.67982   0.75664   0.00000  Uiso   1.00
H791   H     0.96436   0.77074   0.91639   0.00000  Uiso   1.00
H792   H     0.76412   0.98684   0.74358   0.00000  Uiso   1.00
H793   H     0.67025   0.87247   0.78971   0.00000  Uiso   1.00
H794   H     0.99639   0.79416   0.71033   0.00000  Uiso   1.00
H795   H     0.96944   0.92520   0.93260   0.00000  Uiso   1.00
H796   H     0.67223   0.91688   0.51055   0.00000  Uiso   1.00
H797   H     0.79969   0.80243   0.58449   0.00000  Uiso   1.00
H798   H     0.72609   0.79903   0.54837   0.00000  Uiso   1.00
H799   H     0.98455   0.77501   0.99545   0.00000  Uiso   1.00
N800   N     0.98241   0.84741   0.76416   0.00000  Uiso   1.00
N801   N     0.68426   0.81926   0.73584   0.00000  Uiso   1.00
O802   O     0.79464   0.90474   0.74633   0.00000  Uiso   1.00
O803   O     0.89524   0.91422   0.75586   0.00000  Uiso   1.00
O804   O     0.75848   0.82627   0.81839   0.00000  Uiso   1.00
O805   O     0.85908   0.83575   0.82793   0.00000  Uiso   1.00
O806   O     0.77142   0.75245   0.74414   0.00000  Uiso   1.00
O807   O     0.87203   0.76193   0.75367   0.00000  Uiso   1.00
O808   O     0.80758   0.83092   0.67207   0.00000  Uiso   1.00
O809   O     0.90819   0.84040   0.68160   0.00000  Uiso   1.00
O810   O     0.67224   0.78757   0.89496   0.00000  Uiso   1.00
loop_
_geom_bond_atom_site_label_1
_geom_bond_atom_site_label_2
_geom_bond_distance
_geom_bond_site_symmetry_2
_ccdc_geom_bond_type
C1     O37     1.291   .     A
C1     O38     1.285   .     A
C1     C3      1.428   .     S
C2     C4      1.484   .     S
C2     C14     1.426   .     A
C2     C10     1.415   .     A
C3     C140    1.328   .     S
C3     H160    1.088   .     S
C4     O39     1.304   .     A
C4     O40     1.299   .     A
C5     C6      1.428   .     S
C5     C273    1.328   1_545 S
C5     H297    1.088   1_545 S
C6     O42     1.291   .     A
C6     O41     1.285   .     A
C7     O43     1.294   .     A
C7     O44     1.301   .     A
C7     C9      1.465   .     S
C8     C20     1.394   .     A
C8     C421    1.405   1_554 S
C8     H76     1.084   .     S
C9     C20     1.398   .     A
C9     C19     1.398   .     A
C10    O45     1.383   .     S
C10    C11     1.399   .     A
C11    C418    1.387   .     S
C11    H124    1.083   1_455 S
C12    C14     1.418   .     A
C12    C418    1.414   .     S
C12    C420    1.426   .     S
C13    H33     1.077   .     S
C13    C417    1.414   1_554 S
C13    C416    1.387   1_554 S
C14    C18     1.414   .     A
C15    C19     1.403   .     A
C15    C417    1.426   1_554 S
C15    C421    1.419   1_554 S
C16    C17     1.392   .     A
C16    C420    1.419   .     S
C16    C413    1.405   .     S
C17    C18     1.388   .     A
C17    H30     1.084   .     S
C18    H24     1.080   .     S
C19    H32     1.077   .     S
C20    H23     1.083   .     S
Cu21   O39     1.940   .     S
Cu21   N36     2.018   .     S
Cu21   O41     1.952   .     S
Cu21   Cu22    2.686   .     S
Cu21   O43     1.918   .     S
Cu21   O37     1.956   .     S
Cu22   N35     2.018   .     S
Cu22   O40     1.918   .     S
Cu22   O42     1.956   .     S
Cu22   O44     1.940   .     S
Cu22   O38     1.952   .     S
H25    C273    1.088   1_545 S
H26    O90     0.992   .     S
H27    C140    1.088   .     S
H28    N125    1.029   1_455 S
H29    N81     1.029   .     S
H31    C98     1.084   1_455 S
H34    C56     1.083   .     S
N35    H73     1.029   .     S
N35    N81     1.285   .     S
N36    N125    1.285   1_455 S
N36    H119    1.029   1_455 S
O45    H116    0.992   1_455 S
C46    O82     1.291   .     A
C46    O83     1.285   .     A
C46    C48     1.428   .     S
C47    C49     1.484   .     S
C47    C59     1.426   .     A
C47    C55     1.415   .     A
C48    C185    1.328   .     S
C48    H205    1.088   .     S
C49    O84     1.304   .     A
C49    O85     1.299   .     A
C50    C51     1.428   .     S
C50    C318    1.328   1_545 S
C50    H342    1.088   1_545 S
C51    O87     1.291   .     A
C51    O86     1.285   .     A
C52    O88     1.294   .     A
C52    O89     1.301   .     A
C52    C54     1.465   .     S
C53    C65     1.394   .     A
C53    C466    1.405   1_554 S
C53    H121    1.084   .     S
C54    C65     1.398   .     A
C54    C64     1.398   .     A
C55    O90     1.383   .     S
C55    C56     1.399   .     A
C56    C463    1.387   .     S
C57    C59     1.418   .     A
C57    C463    1.414   .     S
C57    C465    1.426   .     S
C58    H78     1.077   .     S
C58    C462    1.414   1_554 S
C58    C461    1.387   1_554 S
C59    C63     1.414   .     A
C60    C64     1.403   .     A
C60    C462    1.426   1_554 S
C60    C466    1.419   1_554 S
C61    C62     1.392   .     A
C61    C465    1.419   .     S
C61    C458    1.405   .     S
C62    C63     1.388   .     A
C62    H75     1.084   .     S
C63    H69     1.080   .     S
C64    H77     1.077   .     S
C65    H68     1.083   .     S
Cu66   O84     1.940   .     S
Cu66   N81     2.018   .     S
Cu66   O86     1.952   .     S
Cu66   Cu67    2.686   .     S
Cu66   O88     1.918   .     S
Cu66   O82     1.956   .     S
Cu67   N80     2.018   .     S
Cu67   O85     1.918   .     S
Cu67   O87     1.956   .     S
Cu67   O89     1.940   .     S
Cu67   O83     1.952   .     S
H70    C318    1.088   1_545 S
H71    O135    0.992   .     S
H72    C185    1.088   .     S
H74    N126    1.029   .     S
H79    C101    1.083   .     S
N80    H118    1.029   .     S
N80    N126    1.285   .     S
C91    O127    1.291   .     A
C91    O128    1.285   .     A
C91    C93     1.428   .     S
C92    C94     1.484   .     S
C92    C104    1.426   .     A
C92    C100    1.415   .     A
C93    C230    1.328   .     S
C93    H250    1.088   .     S
C94    O129    1.304   .     A
C94    O130    1.299   .     A
C95    C96     1.428   .     S
C95    C363    1.328   1_545 S
C95    H387    1.088   1_545 S
C96    O132    1.291   .     A
C96    O131    1.285   .     A
C97    O133    1.294   .     A
C97    O134    1.301   .     A
C97    C99     1.465   .     S
C98    C110    1.394   .     A
C98    C511    1.405   1_554 S
C98    H31     1.084   1_655 S
C99    C110    1.398   .     A
C99    C109    1.398   .     A
C100   O135    1.383   .     S
C100   C101    1.399   .     A
C101   C508    1.387   .     S
C102   C104    1.418   .     A
C102   C508    1.414   .     S
C102   C510    1.426   .     S
C103   H123    1.077   .     S
C103   C507    1.414   1_554 S
C103   C506    1.387   1_554 S
C104   C108    1.414   .     A
C105   C109    1.403   .     A
C105   C507    1.426   1_554 S
C105   C511    1.419   1_554 S
C106   C107    1.392   .     A
C106   C510    1.419   .     S
C106   C503    1.405   .     S
C107   C108    1.388   .     A
C107   H120    1.084   .     S
C108   H114    1.080   .     S
C109   H122    1.077   .     S
C110   H113    1.083   .     S
Cu111  O129    1.940   .     S
Cu111  N126    2.018   .     S
Cu111  O131    1.952   .     S
Cu111  Cu112   2.686   .     S
Cu111  O133    1.918   .     S
Cu111  O127    1.956   .     S
Cu112  N125    2.018   .     S
Cu112  O130    1.918   .     S
Cu112  O132    1.956   .     S
Cu112  O134    1.940   .     S
Cu112  O128    1.952   .     S
H115   C363    1.088   1_545 S
H116   O45     0.992   1_655 S
H117   C230    1.088   .     S
H119   N36     1.029   1_655 S
H124   C11     1.083   1_655 S
N125   H28     1.029   1_655 S
N125   N36     1.285   1_655 S
C136   O172    1.291   .     A
C136   O173    1.285   .     A
C136   C138    1.428   .     S
C137   C139    1.484   .     S
C137   C149    1.426   .     A
C137   C145    1.415   .     A
C138   C275    1.328   .     S
C138   H295    1.088   .     S
C139   O174    1.304   .     A
C139   O175    1.299   .     A
C140   C141    1.428   .     S
C141   O177    1.291   .     A
C141   O176    1.285   .     A
C142   O178    1.294   .     A
C142   O179    1.301   .     A
C142   C144    1.465   .     S
C143   C155    1.394   .     A
C143   C556    1.405   1_554 S
C143   H211    1.084   .     S
C144   C155    1.398   .     A
C144   C154    1.398   .     A
C145   O180    1.383   .     S
C145   C146    1.399   .     A
C146   C553    1.387   .     S
C146   H259    1.083   1_455 S
C147   C149    1.418   .     A
C147   C553    1.414   .     S
C147   C555    1.426   .     S
C148   H168    1.077   .     S
C148   C552    1.414   1_554 S
C148   C551    1.387   1_554 S
C149   C153    1.414   .     A
C150   C154    1.403   .     A
C150   C552    1.426   1_554 S
C150   C556    1.419   1_554 S
C151   C152    1.392   .     A
C151   C555    1.419   .     S
C151   C548    1.405   .     S
C152   C153    1.388   .     A
C152   H165    1.084   .     S
C153   H159    1.080   .     S
C154   H167    1.077   .     S
C155   H158    1.083   .     S
Cu156  O174    1.940   .     S
Cu156  N171    2.018   .     S
Cu156  O176    1.952   .     S
Cu156  Cu157   2.686   .     S
Cu156  O178    1.918   .     S
Cu156  O172    1.956   .     S
Cu157  N170    2.018   .     S
Cu157  O175    1.918   .     S
Cu157  O177    1.956   .     S
Cu157  O179    1.940   .     S
Cu157  O173    1.952   .     S
H161   O225    0.992   .     S
H162   C275    1.088   .     S
H163   N260    1.029   1_455 S
H164   N216    1.029   .     S
H166   C233    1.084   1_455 S
H169   C191    1.083   .     S
N170   H208    1.029   .     S
N170   N216    1.285   .     S
N171   N260    1.285   1_455 S
N171   H254    1.029   1_455 S
O180   H251    0.992   1_455 S
C181   O217    1.291   .     A
C181   O218    1.285   .     A
C181   C183    1.428   .     S
C182   C184    1.484   .     S
C182   C194    1.426   .     A
C182   C190    1.415   .     A
C183   C320    1.328   .     S
C183   H340    1.088   .     S
C184   O219    1.304   .     A
C184   O220    1.299   .     A
C185   C186    1.428   .     S
C186   O222    1.291   .     A
C186   O221    1.285   .     A
C187   O223    1.294   .     A
C187   O224    1.301   .     A
C187   C189    1.465   .     S
C188   C200    1.394   .     A
C188   C601    1.405   1_554 S
C188   H256    1.084   .     S
C189   C200    1.398   .     A
C189   C199    1.398   .     A
C190   O225    1.383   .     S
C190   C191    1.399   .     A
C191   C598    1.387   .     S
C192   C194    1.418   .     A
C192   C598    1.414   .     S
C192   C600    1.426   .     S
C193   H213    1.077   .     S
C193   C597    1.414   1_554 S
C193   C596    1.387   1_554 S
C194   C198    1.414   .     A
C195   C199    1.403   .     A
C195   C597    1.426   1_554 S
C195   C601    1.419   1_554 S
C196   C197    1.392   .     A
C196   C600    1.419   .     S
C196   C593    1.405   .     S
C197   C198    1.388   .     A
C197   H210    1.084   .     S
C198   H204    1.080   .     S
C199   H212    1.077   .     S
C200   H203    1.083   .     S
Cu201  O219    1.940   .     S
Cu201  N216    2.018   .     S
Cu201  O221    1.952   .     S
Cu201  Cu202   2.686   .     S
Cu201  O223    1.918   .     S
Cu201  O217    1.956   .     S
Cu202  N215    2.018   .     S
Cu202  O220    1.918   .     S
Cu202  O222    1.956   .     S
Cu202  O224    1.940   .     S
Cu202  O218    1.952   .     S
H206   O270    0.992   .     S
H207   C320    1.088   .     S
H209   N261    1.029   .     S
H214   C236    1.083   .     S
N215   H253    1.029   .     S
N215   N261    1.285   .     S
C226   O262    1.291   .     A
C226   O263    1.285   .     A
C226   C228    1.428   .     S
C227   C229    1.484   .     S
C227   C239    1.426   .     A
C227   C235    1.415   .     A
C228   C365    1.328   .     S
C228   H385    1.088   .     S
C229   O264    1.304   .     A
C229   O265    1.299   .     A
C230   C231    1.428   .     S
C231   O267    1.291   .     A
C231   O266    1.285   .     A
C232   O268    1.294   .     A
C232   O269    1.301   .     A
C232   C234    1.465   .     S
C233   C245    1.394   .     A
C233   C646    1.405   1_554 S
C233   H166    1.084   1_655 S
C234   C245    1.398   .     A
C234   C244    1.398   .     A
C235   O270    1.383   .     S
C235   C236    1.399   .     A
C236   C643    1.387   .     S
C237   C239    1.418   .     A
C237   C643    1.414   .     S
C237   C645    1.426   .     S
C238   H258    1.077   .     S
C238   C642    1.414   1_554 S
C238   C641    1.387   1_554 S
C239   C243    1.414   .     A
C240   C244    1.403   .     A
C240   C642    1.426   1_554 S
C240   C646    1.419   1_554 S
C241   C242    1.392   .     A
C241   C645    1.419   .     S
C241   C638    1.405   .     S
C242   C243    1.388   .     A
C242   H255    1.084   .     S
C243   H249    1.080   .     S
C244   H257    1.077   .     S
C245   H248    1.083   .     S
Cu246  O264    1.940   .     S
Cu246  N261    2.018   .     S
Cu246  O266    1.952   .     S
Cu246  Cu247   2.686   .     S
Cu246  O268    1.918   .     S
Cu246  O262    1.956   .     S
Cu247  N260    2.018   .     S
Cu247  O265    1.918   .     S
Cu247  O267    1.956   .     S
Cu247  O269    1.940   .     S
Cu247  O263    1.952   .     S
H251   O180    0.992   1_655 S
H252   C365    1.088   .     S
H254   N171    1.029   1_655 S
H259   C146    1.083   1_655 S
N260   H163    1.029   1_655 S
N260   N171    1.285   1_655 S
C271   O307    1.291   .     A
C271   O308    1.285   .     A
C271   C273    1.428   .     S
C272   C274    1.484   .     S
C272   C284    1.426   .     A
C272   C280    1.415   .     A
C273   C5      1.328   1_565 S
C273   H25     1.088   1_565 S
C274   O309    1.304   .     A
C274   O310    1.299   .     A
C275   C276    1.428   .     S
C276   O312    1.291   .     A
C276   O311    1.285   .     A
C277   O313    1.294   .     A
C277   O314    1.301   .     A
C277   C279    1.465   .     S
C278   C290    1.394   .     A
C278   C691    1.405   1_554 S
C278   H346    1.084   .     S
C279   C290    1.398   .     A
C279   C289    1.398   .     A
C280   O315    1.383   .     S
C280   C281    1.399   .     A
C281   C688    1.387   .     S
C281   H394    1.083   1_455 S
C282   C284    1.418   .     A
C282   C688    1.414   .     S
C282   C690    1.426   .     S
C283   H303    1.077   .     S
C283   C687    1.414   1_554 S
C283   C686    1.387   1_554 S
C284   C288    1.414   .     A
C285   C289    1.403   .     A
C285   C687    1.426   1_554 S
C285   C691    1.419   1_554 S
C286   C287    1.392   .     A
C286   C690    1.419   .     S
C286   C683    1.405   .     S
C287   C288    1.388   .     A
C287   H300    1.084   .     S
C288   H294    1.080   .     S
C289   H302    1.077   .     S
C290   H293    1.083   .     S
Cu291  O309    1.940   .     S
Cu291  N306    2.018   .     S
Cu291  O311    1.952   .     S
Cu291  Cu292   2.686   .     S
Cu291  O313    1.918   .     S
Cu291  O307    1.956   .     S
Cu292  N305    2.018   .     S
Cu292  O310    1.918   .     S
Cu292  O312    1.956   .     S
Cu292  O314    1.940   .     S
Cu292  O308    1.952   .     S
H296   O360    0.992   .     S
H297   C5      1.088   1_565 S
H298   N395    1.029   1_455 S
H299   N351    1.029   .     S
H301   C368    1.084   1_455 S
H304   C326    1.083   .     S
N305   H343    1.029   .     S
N305   N351    1.285   .     S
N306   N395    1.285   1_455 S
N306   H389    1.029   1_455 S
O315   H386    0.992   1_455 S
C316   O352    1.291   .     A
C316   O353    1.285   .     A
C316   C318    1.428   .     S
C317   C319    1.484   .     S
C317   C329    1.426   .     A
C317   C325    1.415   .     A
C318   C50     1.328   1_565 S
C318   H70     1.088   1_565 S
C319   O354    1.304   .     A
C319   O355    1.299   .     A
C320   C321    1.428   .     S
C321   O357    1.291   .     A
C321   O356    1.285   .     A
C322   O358    1.294   .     A
C322   O359    1.301   .     A
C322   C324    1.465   .     S
C323   C335    1.394   .     A
C323   C736    1.405   1_554 S
C323   H391    1.084   .     S
C324   C335    1.398   .     A
C324   C334    1.398   .     A
C325   O360    1.383   .     S
C325   C326    1.399   .     A
C326   C733    1.387   .     S
C327   C329    1.418   .     A
C327   C733    1.414   .     S
C327   C735    1.426   .     S
C328   H348    1.077   .     S
C328   C732    1.414   1_554 S
C328   C731    1.387   1_554 S
C329   C333    1.414   .     A
C330   C334    1.403   .     A
C330   C732    1.426   1_554 S
C330   C736    1.419   1_554 S
C331   C332    1.392   .     A
C331   C735    1.419   .     S
C331   C728    1.405   .     S
C332   C333    1.388   .     A
C332   H345    1.084   .     S
C333   H339    1.080   .     S
C334   H347    1.077   .     S
C335   H338    1.083   .     S
Cu336  O354    1.940   .     S
Cu336  N351    2.018   .     S
Cu336  O356    1.952   .     S
Cu336  Cu337   2.686   .     S
Cu336  O358    1.918   .     S
Cu336  O352    1.956   .     S
Cu337  N350    2.018   .     S
Cu337  O355    1.918   .     S
Cu337  O357    1.956   .     S
Cu337  O359    1.940   .     S
Cu337  O353    1.952   .     S
H341   O405    0.992   .     S
H342   C50     1.088   1_565 S
H344   N396    1.029   .     S
H349   C371    1.083   .     S
N350   H388    1.029   .     S
N350   N396    1.285   .     S
C361   O397    1.291   .     A
C361   O398    1.285   .     A
C361   C363    1.428   .     S
C362   C364    1.484   .     S
C362   C374    1.426   .     A
C362   C370    1.415   .     A
C363   C95     1.328   1_565 S
C363   H115    1.088   1_565 S
C364   O399    1.304   .     A
C364   O400    1.299   .     A
C365   C366    1.428   .     S
C366   O402    1.291   .     A
C366   O401    1.285   .     A
C367   O403    1.294   .     A
C367   O404    1.301   .     A
C367   C369    1.465   .     S
C368   C380    1.394   .     A
C368   C781    1.405   1_554 S
C368   H301    1.084   1_655 S
C369   C380    1.398   .     A
C369   C379    1.398   .     A
C370   O405    1.383   .     S
C370   C371    1.399   .     A
C371   C778    1.387   .     S
C372   C374    1.418   .     A
C372   C778    1.414   .     S
C372   C780    1.426   .     S
C373   H393    1.077   .     S
C373   C777    1.414   1_554 S
C373   C776    1.387   1_554 S
C374   C378    1.414   .     A
C375   C379    1.403   .     A
C375   C777    1.426   1_554 S
C375   C781    1.419   1_554 S
C376   C377    1.392   .     A
C376   C780    1.419   .     S
C376   C773    1.405   .     S
C377   C378    1.388   .     A
C377   H390    1.084   .     S
C378   H384    1.080   .     S
C379   H392    1.077   .     S
C380   H383    1.083   .     S
Cu381  O399    1.940   .     S
Cu381  N396    2.018   .     S
Cu381  O401    1.952   .     S
Cu381  Cu382   2.686   .     S
Cu381  O403    1.918   .     S
Cu381  O397    1.956   .     S
Cu382  N395    2.018   .     S
Cu382  O400    1.918   .     S
Cu382  O402    1.956   .     S
Cu382  O404    1.940   .     S
Cu382  O398    1.952   .     S
H386   O315    0.992   1_655 S
H387   C95     1.088   1_565 S
H389   N306    1.029   1_655 S
H394   C281    1.083   1_655 S
N395   H298    1.029   1_655 S
N395   N306    1.285   1_655 S
C406   O442    1.291   .     A
C406   O443    1.285   .     A
C406   C408    1.428   .     S
C407   C409    1.484   .     S
C407   C419    1.426   .     A
C407   C415    1.415   .     A
C408   C545    1.328   .     S
C408   H565    1.088   .     S
C409   O444    1.304   .     A
C409   O445    1.299   .     A
C410   C411    1.428   .     S
C410   C678    1.328   1_545 S
C410   H702    1.088   1_545 S
C411   O447    1.291   .     A
C411   O446    1.285   .     A
C412   O448    1.294   .     A
C412   O449    1.301   .     A
C412   C414    1.465   .     S
C413   C425    1.394   .     A
C413   H481    1.084   .     S
C414   C425    1.398   .     A
C414   C424    1.398   .     A
C415   O450    1.383   .     S
C415   C416    1.399   .     A
C416   C13     1.387   1_556 S
C416   H529    1.083   1_455 S
C417   C419    1.418   .     A
C417   C13     1.414   1_556 S
C417   C15     1.426   1_556 S
C418   H438    1.077   .     S
C419   C423    1.414   .     A
C420   C424    1.403   .     A
C421   C422    1.392   .     A
C421   C15     1.419   1_556 S
C421   C8      1.405   1_556 S
C422   C423    1.388   .     A
C422   H435    1.084   .     S
C423   H429    1.080   .     S
C424   H437    1.077   .     S
C425   H428    1.083   .     S
Cu426  O444    1.940   .     S
Cu426  N441    2.018   .     S
Cu426  O446    1.952   .     S
Cu426  Cu427   2.686   .     S
Cu426  O448    1.918   .     S
Cu426  O442    1.956   .     S
Cu427  N440    2.018   .     S
Cu427  O445    1.918   .     S
Cu427  O447    1.956   .     S
Cu427  O449    1.940   .     S
Cu427  O443    1.952   .     S
H430   C678    1.088   1_545 S
H431   O495    0.992   .     S
H432   C545    1.088   .     S
H433   N530    1.029   1_455 S
H434   N486    1.029   .     S
H436   C503    1.084   1_455 S
H439   C461    1.083   .     S
N440   H478    1.029   .     S
N440   N486    1.285   .     S
N441   N530    1.285   1_455 S
N441   H524    1.029   1_455 S
O450   H521    0.992   1_455 S
C451   O487    1.291   .     A
C451   O488    1.285   .     A
C451   C453    1.428   .     S
C452   C454    1.484   .     S
C452   C464    1.426   .     A
C452   C460    1.415   .     A
C453   C590    1.328   .     S
C453   H610    1.088   .     S
C454   O489    1.304   .     A
C454   O490    1.299   .     A
C455   C456    1.428   .     S
C455   C723    1.328   1_545 S
C455   H747    1.088   1_545 S
C456   O492    1.291   .     A
C456   O491    1.285   .     A
C457   O493    1.294   .     A
C457   O494    1.301   .     A
C457   C459    1.465   .     S
C458   C470    1.394   .     A
C458   H526    1.084   .     S
C459   C470    1.398   .     A
C459   C469    1.398   .     A
C460   O495    1.383   .     S
C460   C461    1.399   .     A
C461   C58     1.387   1_556 S
C462   C464    1.418   .     A
C462   C58     1.414   1_556 S
C462   C60     1.426   1_556 S
C463   H483    1.077   .     S
C464   C468    1.414   .     A
C465   C469    1.403   .     A
C466   C467    1.392   .     A
C466   C60     1.419   1_556 S
C466   C53     1.405   1_556 S
C467   C468    1.388   .     A
C467   H480    1.084   .     S
C468   H474    1.080   .     S
C469   H482    1.077   .     S
C470   H473    1.083   .     S
Cu471  O489    1.940   .     S
Cu471  N486    2.018   .     S
Cu471  O491    1.952   .     S
Cu471  Cu472   2.686   .     S
Cu471  O493    1.918   .     S
Cu471  O487    1.956   .     S
Cu472  N485    2.018   .     S
Cu472  O490    1.918   .     S
Cu472  O492    1.956   .     S
Cu472  O494    1.940   .     S
Cu472  O488    1.952   .     S
H475   C723    1.088   1_545 S
H476   O540    0.992   .     S
H477   C590    1.088   .     S
H479   N531    1.029   .     S
H484   C506    1.083   .     S
N485   H523    1.029   .     S
N485   N531    1.285   .     S
C496   O532    1.291   .     A
C496   O533    1.285   .     A
C496   C498    1.428   .     S
C497   C499    1.484   .     S
C497   C509    1.426   .     A
C497   C505    1.415   .     A
C498   C635    1.328   .     S
C498   H655    1.088   .     S
C499   O534    1.304   .     A
C499   O535    1.299   .     A
C500   C501    1.428   .     S
C500   C768    1.328   1_545 S
C500   H792    1.088   1_545 S
C501   O537    1.291   .     A
C501   O536    1.285   .     A
C502   O538    1.294   .     A
C502   O539    1.301   .     A
C502   C504    1.465   .     S
C503   C515    1.394   .     A
C503   H436    1.084   1_655 S
C504   C515    1.398   .     A
C504   C514    1.398   .     A
C505   O540    1.383   .     S
C505   C506    1.399   .     A
C506   C103    1.387   1_556 S
C507   C509    1.418   .     A
C507   C103    1.414   1_556 S
C507   C105    1.426   1_556 S
C508   H528    1.077   .     S
C509   C513    1.414   .     A
C510   C514    1.403   .     A
C511   C512    1.392   .     A
C511   C105    1.419   1_556 S
C511   C98     1.405   1_556 S
C512   C513    1.388   .     A
C512   H525    1.084   .     S
C513   H519    1.080   .     S
C514   H527    1.077   .     S
C515   H518    1.083   .     S
Cu516  O534    1.940   .     S
Cu516  N531    2.018   .     S
Cu516  O536    1.952   .     S
Cu516  Cu517   2.686   .     S
Cu516  O538    1.918   .     S
Cu516  O532    1.956   .     S
Cu517  N530    2.018   .     S
Cu517  O535    1.918   .     S
Cu517  O537    1.956   .     S
Cu517  O539    1.940   .     S
Cu517  O533    1.952   .     S
H520   C768    1.088   1_545 S
H521   O450    0.992   1_655 S
H522   C635    1.088   .     S
H524   N441    1.029   1_655 S
H529   C416    1.083   1_655 S
N530   H433    1.029   1_655 S
N530   N441    1.285   1_655 S
C541   O577    1.291   .     A
C541   O578    1.285   .     A
C541   C543    1.428   .     S
C542   C544    1.484   .     S
C542   C554    1.426   .     A
C542   C550    1.415   .     A
C543   C680    1.328   .     S
C543   H700    1.088   .     S
C544   O579    1.304   .     A
C544   O580    1.299   .     A
C545   C546    1.428   .     S
C546   O582    1.291   .     A
C546   O581    1.285   .     A
C547   O583    1.294   .     A
C547   O584    1.301   .     A
C547   C549    1.465   .     S
C548   C560    1.394   .     A
C548   H616    1.084   .     S
C549   C560    1.398   .     A
C549   C559    1.398   .     A
C550   O585    1.383   .     S
C550   C551    1.399   .     A
C551   C148    1.387   1_556 S
C551   H664    1.083   1_455 S
C552   C554    1.418   .     A
C552   C148    1.414   1_556 S
C552   C150    1.426   1_556 S
C553   H573    1.077   .     S
C554   C558    1.414   .     A
C555   C559    1.403   .     A
C556   C557    1.392   .     A
C556   C150    1.419   1_556 S
C556   C143    1.405   1_556 S
C557   C558    1.388   .     A
C557   H570    1.084   .     S
C558   H564    1.080   .     S
C559   H572    1.077   .     S
C560   H563    1.083   .     S
Cu561  O579    1.940   .     S
Cu561  N576    2.018   .     S
Cu561  O581    1.952   .     S
Cu561  Cu562   2.686   .     S
Cu561  O583    1.918   .     S
Cu561  O577    1.956   .     S
Cu562  N575    2.018   .     S
Cu562  O580    1.918   .     S
Cu562  O582    1.956   .     S
Cu562  O584    1.940   .     S
Cu562  O578    1.952   .     S
H566   O630    0.992   .     S
H567   C680    1.088   .     S
H568   N665    1.029   1_455 S
H569   N621    1.029   .     S
H571   C638    1.084   1_455 S
H574   C596    1.083   .     S
N575   H613    1.029   .     S
N575   N621    1.285   .     S
N576   N665    1.285   1_455 S
N576   H659    1.029   1_455 S
O585   H656    0.992   1_455 S
C586   O622    1.291   .     A
C586   O623    1.285   .     A
C586   C588    1.428   .     S
C587   C589    1.484   .     S
C587   C599    1.426   .     A
C587   C595    1.415   .     A
C588   C725    1.328   .     S
C588   H745    1.088   .     S
C589   O624    1.304   .     A
C589   O625    1.299   .     A
C590   C591    1.428   .     S
C591   O627    1.291   .     A
C591   O626    1.285   .     A
C592   O628    1.294   .     A
C592   O629    1.301   .     A
C592   C594    1.465   .     S
C593   C605    1.394   .     A
C593   H661    1.084   .     S
C594   C605    1.398   .     A
C594   C604    1.398   .     A
C595   O630    1.383   .     S
C595   C596    1.399   .     A
C596   C193    1.387   1_556 S
C597   C599    1.418   .     A
C597   C193    1.414   1_556 S
C597   C195    1.426   1_556 S
C598   H618    1.077   .     S
C599   C603    1.414   .     A
C600   C604    1.403   .     A
C601   C602    1.392   .     A
C601   C195    1.419   1_556 S
C601   C188    1.405   1_556 S
C602   C603    1.388   .     A
C602   H615    1.084   .     S
C603   H609    1.080   .     S
C604   H617    1.077   .     S
C605   H608    1.083   .     S
Cu606  O624    1.940   .     S
Cu606  N621    2.018   .     S
Cu606  O626    1.952   .     S
Cu606  Cu607   2.686   .     S
Cu606  O628    1.918   .     S
Cu606  O622    1.956   .     S
Cu607  N620    2.018   .     S
Cu607  O625    1.918   .     S
Cu607  O627    1.956   .     S
Cu607  O629    1.940   .     S
Cu607  O623    1.952   .     S
H611   O675    0.992   .     S
H612   C725    1.088   .     S
H614   N666    1.029   .     S
H619   C641    1.083   .     S
N620   H658    1.029   .     S
N620   N666    1.285   .     S
C631   O667    1.291   .     A
C631   O668    1.285   .     A
C631   C633    1.428   .     S
C632   C634    1.484   .     S
C632   C644    1.426   .     A
C632   C640    1.415   .     A
C633   C770    1.328   .     S
C633   H790    1.088   .     S
C634   O669    1.304   .     A
C634   O670    1.299   .     A
C635   C636    1.428   .     S
C636   O672    1.291   .     A
C636   O671    1.285   .     A
C637   O673    1.294   .     A
C637   O674    1.301   .     A
C637   C639    1.465   .     S
C638   C650    1.394   .     A
C638   H571    1.084   1_655 S
C639   C650    1.398   .     A
C639   C649    1.398   .     A
C640   O675    1.383   .     S
C640   C641    1.399   .     A
C641   C238    1.387   1_556 S
C642   C644    1.418   .     A
C642   C238    1.414   1_556 S
C642   C240    1.426   1_556 S
C643   H663    1.077   .     S
C644   C648    1.414   .     A
C645   C649    1.403   .     A
C646   C647    1.392   .     A
C646   C240    1.419   1_556 S
C646   C233    1.405   1_556 S
C647   C648    1.388   .     A
C647   H660    1.084   .     S
C648   H654    1.080   .     S
C649   H662    1.077   .     S
C650   H653    1.083   .     S
Cu651  O669    1.940   .     S
Cu651  N666    2.018   .     S
Cu651  O671    1.952   .     S
Cu651  Cu652   2.686   .     S
Cu651  O673    1.918   .     S
Cu651  O667    1.956   .     S
Cu652  N665    2.018   .     S
Cu652  O670    1.918   .     S
Cu652  O672    1.956   .     S
Cu652  O674    1.940   .     S
Cu652  O668    1.952   .     S
H656   O585    0.992   1_655 S
H657   C770    1.088   .     S
H659   N576    1.029   1_655 S
H664   C551    1.083   1_655 S
N665   H568    1.029   1_655 S
N665   N576    1.285   1_655 S
C676   O712    1.291   .     A
C676   O713    1.285   .     A
C676   C678    1.428   .     S
C677   C679    1.484   .     S
C677   C689    1.426   .     A
C677   C685    1.415   .     A
C678   C410    1.328   1_565 S
C678   H430    1.088   1_565 S
C679   O714    1.304   .     A
C679   O715    1.299   .     A
C680   C681    1.428   .     S
C681   O717    1.291   .     A
C681   O716    1.285   .     A
C682   O718    1.294   .     A
C682   O719    1.301   .     A
C682   C684    1.465   .     S
C683   C695    1.394   .     A
C683   H751    1.084   .     S
C684   C695    1.398   .     A
C684   C694    1.398   .     A
C685   O720    1.383   .     S
C685   C686    1.399   .     A
C686   C283    1.387   1_556 S
C686   H799    1.083   1_455 S
C687   C689    1.418   .     A
C687   C283    1.414   1_556 S
C687   C285    1.426   1_556 S
C688   H708    1.077   .     S
C689   C693    1.414   .     A
C690   C694    1.403   .     A
C691   C692    1.392   .     A
C691   C285    1.419   1_556 S
C691   C278    1.405   1_556 S
C692   C693    1.388   .     A
C692   H705    1.084   .     S
C693   H699    1.080   .     S
C694   H707    1.077   .     S
C695   H698    1.083   .     S
Cu696  O714    1.940   .     S
Cu696  N711    2.018   .     S
Cu696  O716    1.952   .     S
Cu696  Cu697   2.686   .     S
Cu696  O718    1.918   .     S
Cu696  O712    1.956   .     S
Cu697  N710    2.018   .     S
Cu697  O715    1.918   .     S
Cu697  O717    1.956   .     S
Cu697  O719    1.940   .     S
Cu697  O713    1.952   .     S
H701   O765    0.992   .     S
H702   C410    1.088   1_565 S
H703   N800    1.029   1_455 S
H704   N756    1.029   .     S
H706   C773    1.084   1_455 S
H709   C731    1.083   .     S
N710   H748    1.029   .     S
N710   N756    1.285   .     S
N711   N800    1.285   1_455 S
N711   H794    1.029   1_455 S
O720   H791    0.992   1_455 S
C721   O757    1.291   .     A
C721   O758    1.285   .     A
C721   C723    1.428   .     S
C722   C724    1.484   .     S
C722   C734    1.426   .     A
C722   C730    1.415   .     A
C723   C455    1.328   1_565 S
C723   H475    1.088   1_565 S
C724   O759    1.304   .     A
C724   O760    1.299   .     A
C725   C726    1.428   .     S
C726   O762    1.291   .     A
C726   O761    1.285   .     A
C727   O763    1.294   .     A
C727   O764    1.301   .     A
C727   C729    1.465   .     S
C728   C740    1.394   .     A
C728   H796    1.084   .     S
C729   C740    1.398   .     A
C729   C739    1.398   .     A
C730   O765    1.383   .     S
C730   C731    1.399   .     A
C731   C328    1.387   1_556 S
C732   C734    1.418   .     A
C732   C328    1.414   1_556 S
C732   C330    1.426   1_556 S
C733   H753    1.077   .     S
C734   C738    1.414   .     A
C735   C739    1.403   .     A
C736   C737    1.392   .     A
C736   C330    1.419   1_556 S
C736   C323    1.405   1_556 S
C737   C738    1.388   .     A
C737   H750    1.084   .     S
C738   H744    1.080   .     S
C739   H752    1.077   .     S
C740   H743    1.083   .     S
Cu741  O759    1.940   .     S
Cu741  N756    2.018   .     S
Cu741  O761    1.952   .     S
Cu741  Cu742   2.686   .     S
Cu741  O763    1.918   .     S
Cu741  O757    1.956   .     S
Cu742  N755    2.018   .     S
Cu742  O760    1.918   .     S
Cu742  O762    1.956   .     S
Cu742  O764    1.940   .     S
Cu742  O758    1.952   .     S
H746   O810    0.992   .     S
H747   C455    1.088   1_565 S
H749   N801    1.029   .     S
H754   C776    1.083   .     S
N755   H793    1.029   .     S
N755   N801    1.285   .     S
C766   O802    1.291   .     A
C766   O803    1.285   .     A
C766   C768    1.428   .     S
C767   C769    1.484   .     S
C767   C779    1.426   .     A
C767   C775    1.415   .     A
C768   C500    1.328   1_565 S
C768   H520    1.088   1_565 S
C769   O804    1.304   .     A
C769   O805    1.299   .     A
C770   C771    1.428   .     S
C771   O807    1.291   .     A
C771   O806    1.285   .     A
C772   O808    1.294   .     A
C772   O809    1.301   .     A
C772   C774    1.465   .     S
C773   C785    1.394   .     A
C773   H706    1.084   1_655 S
C774   C785    1.398   .     A
C774   C784    1.398   .     A
C775   O810    1.383   .     S
C775   C776    1.399   .     A
C776   C373    1.387   1_556 S
C777   C779    1.418   .     A
C777   C373    1.414   1_556 S
C777   C375    1.426   1_556 S
C778   H798    1.077   .     S
C779   C783    1.414   .     A
C780   C784    1.403   .     A
C781   C782    1.392   .     A
C781   C375    1.419   1_556 S
C781   C368    1.405   1_556 S
C782   C783    1.388   .     A
C782   H795    1.084   .     S
C783   H789    1.080   .     S
C784   H797    1.077   .     S
C785   H788    1.083   .     S
Cu786  O804    1.940   .     S
Cu786  N801    2.018   .     S
Cu786  O806    1.952   .     S
Cu786  Cu787   2.686   .     S
Cu786  O808    1.918   .     S
Cu786  O802    1.956   .     S
Cu787  N800    2.018   .     S
Cu787  O805    1.918   .     S
Cu787  O807    1.956   .     S
Cu787  O809    1.940   .     S
Cu787  O803    1.952   .     S
H791   O720    0.992   1_655 S
H792   C500    1.088   1_565 S
H794   N711    1.029   1_655 S
H799   C686    1.083   1_655 S
N800   H703    1.029   1_655 S
N800   N711    1.285   1_655 S
