data_str_m2_o1_o10_pcu_sym.60
_audit_creation_date              2020-01-03
_audit_creation_method            'Materials Studio'
_symmetry_space_group_name_H-M    'P1'
_symmetry_Int_Tables_number       1
_symmetry_cell_setting            triclinic
loop_
_symmetry_equiv_pos_as_xyz
  x,y,z
_cell_length_a                    26.4733
_cell_length_b                    32.6847
_cell_length_c                    28.9359
_cell_angle_alpha                 88.4814
_cell_angle_beta                  97.7679
_cell_angle_gamma                 95.3726
loop_
_atom_site_label
_atom_site_type_symbol
_atom_site_fract_x
_atom_site_fract_y
_atom_site_fract_z
_atom_site_U_iso_or_equiv
_atom_site_adp_type
_atom_site_occupancy
C1     C     0.17052   0.08773   0.16787   0.00000  Uiso   1.00
C2     C     0.16040   0.01895   0.20853   0.00000  Uiso   1.00
C3     C     0.15869   0.29041   0.16334   0.00000  Uiso   1.00
C4     C     0.17464   0.04292   0.17000   0.00000  Uiso   1.00
C5     C     0.13474   0.13892   0.02142   0.00000  Uiso   1.00
C6     C     0.19860   0.19441   0.31192   0.00000  Uiso   1.00
C7     C     0.13195   0.14105   0.30526   0.00000  Uiso   1.00
C8     C     0.20138   0.19228   0.02808   0.00000  Uiso   1.00
C9     C     0.16707   0.29727   0.07703   0.00000  Uiso   1.00
C10    C     0.16626   0.03607   0.25630   0.00000  Uiso   1.00
C11    C     0.11022   0.10104   0.04130   0.00000  Uiso   1.00
C12    C     0.16282   0.24560   0.16547   0.00000  Uiso   1.00
C13    C     0.22311   0.23229   0.29203   0.00000  Uiso   1.00
C14    C     0.08538   0.11969   0.27840   0.00000  Uiso   1.00
C15    C     0.24795   0.21364   0.05493   0.00000  Uiso   1.00
C16    C     0.06813   0.16597   0.15491   0.00000  Uiso   1.00
C17    C     0.26520   0.16736   0.17842   0.00000  Uiso   1.00
C18    C     0.01289   0.16055   0.14973   0.00000  Uiso   1.00
C19    C     0.32044   0.17279   0.18360   0.00000  Uiso   1.00
C20    C     0.18578   0.02332   0.13029   0.00000  Uiso   1.00
C21    C     0.14755   0.31001   0.20305   0.00000  Uiso   1.00
C22    C     0.17294   0.31439   0.12480   0.00000  Uiso   1.00
Cl23   Cl    0.31646   0.13119   0.10125   0.00000  Uiso   1.00
Cl24   Cl    0.01688   0.20214   0.23208   0.00000  Uiso   1.00
Cl25   Cl    0.22142   0.05078   0.08975   0.00000  Uiso   1.00
Cl26   Cl    0.11191   0.28255   0.24358   0.00000  Uiso   1.00
Cu27   Cu    0.16667   0.16667   0.21355   0.00000  Uiso   1.00
Cu28   Cu    0.16667   0.16666   0.11978   0.00000  Uiso   1.00
H29    H     0.12196   0.26398   0.02704   0.00000  Uiso   1.00
H30    H     0.21137   0.06935   0.30629   0.00000  Uiso   1.00
H31    H     0.05833   0.07417   0.07976   0.00000  Uiso   1.00
H32    H     0.27501   0.25916   0.25357   0.00000  Uiso   1.00
H33    H     0.00865   0.10690   0.27295   0.00000  Uiso   1.00
H34    H     0.32468   0.22643   0.06038   0.00000  Uiso   1.00
N35    N     0.16668   0.16668   0.28403   0.00000  Uiso   1.00
N36    N     0.16665   0.16666   0.04931   0.00000  Uiso   1.00
O37    O     0.16666   0.10655   0.20625   0.00000  Uiso   1.00
O38    O     0.12173   0.27390   0.05991   0.00000  Uiso   1.00
O39    O     0.13258   0.02887   0.28115   0.00000  Uiso   1.00
O40    O     0.21160   0.05944   0.27342   0.00000  Uiso   1.00
O41    O     0.12224   0.06769   0.03071   0.00000  Uiso   1.00
O42    O     0.07160   0.10248   0.06903   0.00000  Uiso   1.00
O43    O     0.21110   0.26564   0.30262   0.00000  Uiso   1.00
O44    O     0.26173   0.23086   0.26430   0.00000  Uiso   1.00
O45    O     0.08801   0.09796   0.24547   0.00000  Uiso   1.00
O46    O     0.03771   0.12304   0.29308   0.00000  Uiso   1.00
O47    O     0.24533   0.23537   0.08786   0.00000  Uiso   1.00
O48    O     0.16667   0.22678   0.12709   0.00000  Uiso   1.00
O49    O     0.29563   0.21029   0.04025   0.00000  Uiso   1.00
O50    O     0.16666   0.10654   0.12706   0.00000  Uiso   1.00
O51    O     0.16667   0.22679   0.20628   0.00000  Uiso   1.00
O52    O     0.09161   0.16667   0.19712   0.00000  Uiso   1.00
O53    O     0.24172   0.16666   0.13621   0.00000  Uiso   1.00
O54    O     0.09161   0.16666   0.11793   0.00000  Uiso   1.00
O55    O     0.24172   0.16667   0.21540   0.00000  Uiso   1.00
O56    O     0.20075   0.30447   0.05218   0.00000  Uiso   1.00
C57    C     0.50385   0.08773   0.16787   0.00000  Uiso   1.00
C58    C     0.49373   0.01895   0.20853   0.00000  Uiso   1.00
C59    C     0.49203   0.29041   0.16334   0.00000  Uiso   1.00
C60    C     0.50797   0.04292   0.17000   0.00000  Uiso   1.00
C61    C     0.46807   0.13892   0.02142   0.00000  Uiso   1.00
C62    C     0.53193   0.19441   0.31192   0.00000  Uiso   1.00
C63    C     0.46529   0.14105   0.30526   0.00000  Uiso   1.00
C64    C     0.53471   0.19228   0.02808   0.00000  Uiso   1.00
C65    C     0.50041   0.29727   0.07703   0.00000  Uiso   1.00
C66    C     0.49959   0.03607   0.25630   0.00000  Uiso   1.00
C67    C     0.44356   0.10104   0.04130   0.00000  Uiso   1.00
C68    C     0.49615   0.24560   0.16547   0.00000  Uiso   1.00
C69    C     0.55644   0.23229   0.29203   0.00000  Uiso   1.00
C70    C     0.41871   0.11969   0.27840   0.00000  Uiso   1.00
C71    C     0.58129   0.21364   0.05493   0.00000  Uiso   1.00
C72    C     0.40147   0.16597   0.15491   0.00000  Uiso   1.00
C73    C     0.59853   0.16736   0.17842   0.00000  Uiso   1.00
C74    C     0.34623   0.16055   0.14973   0.00000  Uiso   1.00
C75    C     0.65377   0.17279   0.18360   0.00000  Uiso   1.00
C76    C     0.51912   0.02332   0.13029   0.00000  Uiso   1.00
C77    C     0.48088   0.31001   0.20305   0.00000  Uiso   1.00
C78    C     0.50627   0.31439   0.12480   0.00000  Uiso   1.00
Cl79   Cl    0.64979   0.13119   0.10125   0.00000  Uiso   1.00
Cl80   Cl    0.35021   0.20214   0.23208   0.00000  Uiso   1.00
Cl81   Cl    0.55476   0.05078   0.08975   0.00000  Uiso   1.00
Cl82   Cl    0.44524   0.28255   0.24358   0.00000  Uiso   1.00
Cu83   Cu    0.50000   0.16667   0.21355   0.00000  Uiso   1.00
Cu84   Cu    0.50000   0.16666   0.11978   0.00000  Uiso   1.00
H85    H     0.45530   0.26398   0.02704   0.00000  Uiso   1.00
H86    H     0.54470   0.06935   0.30629   0.00000  Uiso   1.00
H87    H     0.39166   0.07417   0.07976   0.00000  Uiso   1.00
H88    H     0.60834   0.25916   0.25357   0.00000  Uiso   1.00
H89    H     0.34198   0.10690   0.27295   0.00000  Uiso   1.00
H90    H     0.65802   0.22643   0.06038   0.00000  Uiso   1.00
N91    N     0.50001   0.16668   0.28403   0.00000  Uiso   1.00
N92    N     0.49999   0.16666   0.04931   0.00000  Uiso   1.00
O93    O     0.50000   0.10655   0.20625   0.00000  Uiso   1.00
O94    O     0.45506   0.27390   0.05991   0.00000  Uiso   1.00
O95    O     0.46592   0.02887   0.28115   0.00000  Uiso   1.00
O96    O     0.54494   0.05944   0.27342   0.00000  Uiso   1.00
O97    O     0.45557   0.06769   0.03071   0.00000  Uiso   1.00
O98    O     0.40493   0.10248   0.06903   0.00000  Uiso   1.00
O99    O     0.54443   0.26564   0.30262   0.00000  Uiso   1.00
O100   O     0.59507   0.23086   0.26430   0.00000  Uiso   1.00
O101   O     0.42134   0.09796   0.24547   0.00000  Uiso   1.00
O102   O     0.37104   0.12304   0.29308   0.00000  Uiso   1.00
O103   O     0.57866   0.23537   0.08786   0.00000  Uiso   1.00
O104   O     0.50000   0.22678   0.12709   0.00000  Uiso   1.00
O105   O     0.62896   0.21029   0.04025   0.00000  Uiso   1.00
O106   O     0.50000   0.10654   0.12706   0.00000  Uiso   1.00
O107   O     0.50000   0.22679   0.20628   0.00000  Uiso   1.00
O108   O     0.42495   0.16667   0.19712   0.00000  Uiso   1.00
O109   O     0.57505   0.16666   0.13621   0.00000  Uiso   1.00
O110   O     0.42494   0.16666   0.11793   0.00000  Uiso   1.00
O111   O     0.57506   0.16667   0.21540   0.00000  Uiso   1.00
O112   O     0.53408   0.30447   0.05218   0.00000  Uiso   1.00
C113   C     0.83718   0.08773   0.16787   0.00000  Uiso   1.00
C114   C     0.82706   0.01895   0.20853   0.00000  Uiso   1.00
C115   C     0.82536   0.29041   0.16334   0.00000  Uiso   1.00
C116   C     0.84131   0.04292   0.17000   0.00000  Uiso   1.00
C117   C     0.80140   0.13892   0.02142   0.00000  Uiso   1.00
C118   C     0.86526   0.19441   0.31192   0.00000  Uiso   1.00
C119   C     0.79862   0.14105   0.30526   0.00000  Uiso   1.00
C120   C     0.86805   0.19228   0.02808   0.00000  Uiso   1.00
C121   C     0.83374   0.29727   0.07703   0.00000  Uiso   1.00
C122   C     0.83293   0.03607   0.25630   0.00000  Uiso   1.00
C123   C     0.77689   0.10104   0.04130   0.00000  Uiso   1.00
C124   C     0.82949   0.24560   0.16547   0.00000  Uiso   1.00
C125   C     0.88978   0.23229   0.29203   0.00000  Uiso   1.00
C126   C     0.75205   0.11969   0.27840   0.00000  Uiso   1.00
C127   C     0.91462   0.21364   0.05493   0.00000  Uiso   1.00
C128   C     0.73480   0.16597   0.15491   0.00000  Uiso   1.00
C129   C     0.93187   0.16736   0.17842   0.00000  Uiso   1.00
C130   C     0.67956   0.16055   0.14973   0.00000  Uiso   1.00
C131   C     0.98711   0.17279   0.18360   0.00000  Uiso   1.00
C132   C     0.85245   0.02332   0.13029   0.00000  Uiso   1.00
C133   C     0.81422   0.31001   0.20305   0.00000  Uiso   1.00
C134   C     0.83960   0.31439   0.12480   0.00000  Uiso   1.00
Cl135  Cl    0.98312   0.13119   0.10125   0.00000  Uiso   1.00
Cl136  Cl    0.68354   0.20214   0.23208   0.00000  Uiso   1.00
Cl137  Cl    0.88809   0.05078   0.08975   0.00000  Uiso   1.00
Cl138  Cl    0.77858   0.28255   0.24358   0.00000  Uiso   1.00
Cu139  Cu    0.83333   0.16667   0.21355   0.00000  Uiso   1.00
Cu140  Cu    0.83333   0.16666   0.11978   0.00000  Uiso   1.00
H141   H     0.78863   0.26398   0.02704   0.00000  Uiso   1.00
H142   H     0.87804   0.06935   0.30629   0.00000  Uiso   1.00
H143   H     0.72499   0.07417   0.07976   0.00000  Uiso   1.00
H144   H     0.94167   0.25916   0.25357   0.00000  Uiso   1.00
H145   H     0.67532   0.10690   0.27295   0.00000  Uiso   1.00
H146   H     0.99135   0.22643   0.06038   0.00000  Uiso   1.00
N147   N     0.83335   0.16668   0.28403   0.00000  Uiso   1.00
N148   N     0.83332   0.16666   0.04931   0.00000  Uiso   1.00
O149   O     0.83333   0.10655   0.20625   0.00000  Uiso   1.00
O150   O     0.78840   0.27390   0.05991   0.00000  Uiso   1.00
O151   O     0.79925   0.02887   0.28115   0.00000  Uiso   1.00
O152   O     0.87827   0.05944   0.27342   0.00000  Uiso   1.00
O153   O     0.78890   0.06769   0.03071   0.00000  Uiso   1.00
O154   O     0.73827   0.10248   0.06903   0.00000  Uiso   1.00
O155   O     0.87776   0.26564   0.30262   0.00000  Uiso   1.00
O156   O     0.92840   0.23086   0.26430   0.00000  Uiso   1.00
O157   O     0.75467   0.09796   0.24547   0.00000  Uiso   1.00
O158   O     0.70437   0.12304   0.29308   0.00000  Uiso   1.00
O159   O     0.91200   0.23537   0.08786   0.00000  Uiso   1.00
O160   O     0.83334   0.22678   0.12709   0.00000  Uiso   1.00
O161   O     0.96229   0.21029   0.04025   0.00000  Uiso   1.00
O162   O     0.83333   0.10654   0.12706   0.00000  Uiso   1.00
O163   O     0.83334   0.22679   0.20628   0.00000  Uiso   1.00
O164   O     0.75828   0.16667   0.19712   0.00000  Uiso   1.00
O165   O     0.90839   0.16666   0.13621   0.00000  Uiso   1.00
O166   O     0.75828   0.16666   0.11793   0.00000  Uiso   1.00
O167   O     0.90839   0.16667   0.21540   0.00000  Uiso   1.00
O168   O     0.86742   0.30447   0.05218   0.00000  Uiso   1.00
C169   C     0.17052   0.42106   0.16787   0.00000  Uiso   1.00
C170   C     0.16040   0.35228   0.20853   0.00000  Uiso   1.00
C171   C     0.15869   0.62374   0.16334   0.00000  Uiso   1.00
C172   C     0.17464   0.37626   0.17000   0.00000  Uiso   1.00
C173   C     0.13474   0.47225   0.02142   0.00000  Uiso   1.00
C174   C     0.19860   0.52775   0.31192   0.00000  Uiso   1.00
C175   C     0.13195   0.47439   0.30526   0.00000  Uiso   1.00
C176   C     0.20138   0.52561   0.02808   0.00000  Uiso   1.00
C177   C     0.16707   0.63060   0.07703   0.00000  Uiso   1.00
C178   C     0.16626   0.36940   0.25630   0.00000  Uiso   1.00
C179   C     0.11022   0.43438   0.04130   0.00000  Uiso   1.00
C180   C     0.16282   0.57894   0.16547   0.00000  Uiso   1.00
C181   C     0.22311   0.56562   0.29203   0.00000  Uiso   1.00
C182   C     0.08538   0.45302   0.27840   0.00000  Uiso   1.00
C183   C     0.24795   0.54698   0.05493   0.00000  Uiso   1.00
C184   C     0.06813   0.49931   0.15491   0.00000  Uiso   1.00
C185   C     0.26520   0.50069   0.17842   0.00000  Uiso   1.00
C186   C     0.01289   0.49388   0.14973   0.00000  Uiso   1.00
C187   C     0.32044   0.50612   0.18360   0.00000  Uiso   1.00
C188   C     0.18578   0.35665   0.13029   0.00000  Uiso   1.00
C189   C     0.14755   0.64335   0.20305   0.00000  Uiso   1.00
C190   C     0.17294   0.64772   0.12480   0.00000  Uiso   1.00
Cl191  Cl    0.31646   0.46453   0.10125   0.00000  Uiso   1.00
Cl192  Cl    0.01688   0.53547   0.23208   0.00000  Uiso   1.00
Cl193  Cl    0.22142   0.38411   0.08975   0.00000  Uiso   1.00
Cl194  Cl    0.11191   0.61589   0.24358   0.00000  Uiso   1.00
Cu195  Cu    0.16667   0.50001   0.21355   0.00000  Uiso   1.00
Cu196  Cu    0.16667   0.49999   0.11978   0.00000  Uiso   1.00
H197   H     0.12196   0.59732   0.02704   0.00000  Uiso   1.00
H198   H     0.21137   0.40268   0.30629   0.00000  Uiso   1.00
H199   H     0.05833   0.40751   0.07976   0.00000  Uiso   1.00
H200   H     0.27501   0.59249   0.25357   0.00000  Uiso   1.00
H201   H     0.00865   0.44024   0.27295   0.00000  Uiso   1.00
H202   H     0.32468   0.55976   0.06038   0.00000  Uiso   1.00
N203   N     0.16668   0.50001   0.28403   0.00000  Uiso   1.00
N204   N     0.16665   0.49999   0.04931   0.00000  Uiso   1.00
O205   O     0.16666   0.43989   0.20625   0.00000  Uiso   1.00
O206   O     0.12173   0.60723   0.05991   0.00000  Uiso   1.00
O207   O     0.13258   0.36220   0.28115   0.00000  Uiso   1.00
O208   O     0.21160   0.39277   0.27342   0.00000  Uiso   1.00
O209   O     0.12224   0.40102   0.03071   0.00000  Uiso   1.00
O210   O     0.07160   0.43581   0.06903   0.00000  Uiso   1.00
O211   O     0.21110   0.59898   0.30262   0.00000  Uiso   1.00
O212   O     0.26173   0.56419   0.26430   0.00000  Uiso   1.00
O213   O     0.08801   0.43129   0.24547   0.00000  Uiso   1.00
O214   O     0.03771   0.45637   0.29308   0.00000  Uiso   1.00
O215   O     0.24533   0.56871   0.08786   0.00000  Uiso   1.00
O216   O     0.16667   0.56011   0.12709   0.00000  Uiso   1.00
O217   O     0.29563   0.54363   0.04025   0.00000  Uiso   1.00
O218   O     0.16666   0.43988   0.12706   0.00000  Uiso   1.00
O219   O     0.16667   0.56012   0.20628   0.00000  Uiso   1.00
O220   O     0.09161   0.50000   0.19712   0.00000  Uiso   1.00
O221   O     0.24172   0.50000   0.13621   0.00000  Uiso   1.00
O222   O     0.09161   0.49999   0.11793   0.00000  Uiso   1.00
O223   O     0.24172   0.50001   0.21540   0.00000  Uiso   1.00
O224   O     0.20075   0.63780   0.05218   0.00000  Uiso   1.00
C225   C     0.50385   0.42106   0.16787   0.00000  Uiso   1.00
C226   C     0.49373   0.35228   0.20853   0.00000  Uiso   1.00
C227   C     0.49203   0.62374   0.16334   0.00000  Uiso   1.00
C228   C     0.50797   0.37626   0.17000   0.00000  Uiso   1.00
C229   C     0.46807   0.47225   0.02142   0.00000  Uiso   1.00
C230   C     0.53193   0.52775   0.31192   0.00000  Uiso   1.00
C231   C     0.46529   0.47439   0.30526   0.00000  Uiso   1.00
C232   C     0.53471   0.52561   0.02808   0.00000  Uiso   1.00
C233   C     0.50041   0.63060   0.07703   0.00000  Uiso   1.00
C234   C     0.49959   0.36940   0.25630   0.00000  Uiso   1.00
C235   C     0.44356   0.43438   0.04130   0.00000  Uiso   1.00
C236   C     0.49615   0.57894   0.16547   0.00000  Uiso   1.00
C237   C     0.55644   0.56562   0.29203   0.00000  Uiso   1.00
C238   C     0.41871   0.45302   0.27840   0.00000  Uiso   1.00
C239   C     0.58129   0.54698   0.05493   0.00000  Uiso   1.00
C240   C     0.40147   0.49931   0.15491   0.00000  Uiso   1.00
C241   C     0.59853   0.50069   0.17842   0.00000  Uiso   1.00
C242   C     0.34623   0.49388   0.14973   0.00000  Uiso   1.00
C243   C     0.65377   0.50612   0.18360   0.00000  Uiso   1.00
C244   C     0.51912   0.35665   0.13029   0.00000  Uiso   1.00
C245   C     0.48088   0.64335   0.20305   0.00000  Uiso   1.00
C246   C     0.50627   0.64772   0.12480   0.00000  Uiso   1.00
Cl247  Cl    0.64979   0.46453   0.10125   0.00000  Uiso   1.00
Cl248  Cl    0.35021   0.53547   0.23208   0.00000  Uiso   1.00
Cl249  Cl    0.55476   0.38411   0.08975   0.00000  Uiso   1.00
Cl250  Cl    0.44524   0.61589   0.24358   0.00000  Uiso   1.00
Cu251  Cu    0.50000   0.50001   0.21355   0.00000  Uiso   1.00
Cu252  Cu    0.50000   0.49999   0.11978   0.00000  Uiso   1.00
H253   H     0.45530   0.59732   0.02704   0.00000  Uiso   1.00
H254   H     0.54470   0.40268   0.30629   0.00000  Uiso   1.00
H255   H     0.39166   0.40751   0.07976   0.00000  Uiso   1.00
H256   H     0.60834   0.59249   0.25357   0.00000  Uiso   1.00
H257   H     0.34198   0.44024   0.27295   0.00000  Uiso   1.00
H258   H     0.65802   0.55976   0.06038   0.00000  Uiso   1.00
N259   N     0.50001   0.50001   0.28403   0.00000  Uiso   1.00
N260   N     0.49999   0.49999   0.04931   0.00000  Uiso   1.00
O261   O     0.50000   0.43989   0.20625   0.00000  Uiso   1.00
O262   O     0.45506   0.60723   0.05991   0.00000  Uiso   1.00
O263   O     0.46592   0.36220   0.28115   0.00000  Uiso   1.00
O264   O     0.54494   0.39277   0.27342   0.00000  Uiso   1.00
O265   O     0.45557   0.40102   0.03071   0.00000  Uiso   1.00
O266   O     0.40493   0.43581   0.06903   0.00000  Uiso   1.00
O267   O     0.54443   0.59898   0.30262   0.00000  Uiso   1.00
O268   O     0.59507   0.56419   0.26430   0.00000  Uiso   1.00
O269   O     0.42134   0.43129   0.24547   0.00000  Uiso   1.00
O270   O     0.37104   0.45637   0.29308   0.00000  Uiso   1.00
O271   O     0.57866   0.56871   0.08786   0.00000  Uiso   1.00
O272   O     0.50000   0.56011   0.12709   0.00000  Uiso   1.00
O273   O     0.62896   0.54363   0.04025   0.00000  Uiso   1.00
O274   O     0.50000   0.43988   0.12706   0.00000  Uiso   1.00
O275   O     0.50000   0.56012   0.20628   0.00000  Uiso   1.00
O276   O     0.42495   0.50000   0.19712   0.00000  Uiso   1.00
O277   O     0.57505   0.50000   0.13621   0.00000  Uiso   1.00
O278   O     0.42494   0.49999   0.11793   0.00000  Uiso   1.00
O279   O     0.57506   0.50001   0.21540   0.00000  Uiso   1.00
O280   O     0.53408   0.63780   0.05218   0.00000  Uiso   1.00
C281   C     0.83718   0.42106   0.16787   0.00000  Uiso   1.00
C282   C     0.82706   0.35228   0.20853   0.00000  Uiso   1.00
C283   C     0.82536   0.62374   0.16334   0.00000  Uiso   1.00
C284   C     0.84131   0.37626   0.17000   0.00000  Uiso   1.00
C285   C     0.80140   0.47225   0.02142   0.00000  Uiso   1.00
C286   C     0.86526   0.52775   0.31192   0.00000  Uiso   1.00
C287   C     0.79862   0.47439   0.30526   0.00000  Uiso   1.00
C288   C     0.86805   0.52561   0.02808   0.00000  Uiso   1.00
C289   C     0.83374   0.63060   0.07703   0.00000  Uiso   1.00
C290   C     0.83293   0.36940   0.25630   0.00000  Uiso   1.00
C291   C     0.77689   0.43438   0.04130   0.00000  Uiso   1.00
C292   C     0.82949   0.57894   0.16547   0.00000  Uiso   1.00
C293   C     0.88978   0.56562   0.29203   0.00000  Uiso   1.00
C294   C     0.75205   0.45302   0.27840   0.00000  Uiso   1.00
C295   C     0.91462   0.54698   0.05493   0.00000  Uiso   1.00
C296   C     0.73480   0.49931   0.15491   0.00000  Uiso   1.00
C297   C     0.93187   0.50069   0.17842   0.00000  Uiso   1.00
C298   C     0.67956   0.49388   0.14973   0.00000  Uiso   1.00
C299   C     0.98711   0.50612   0.18360   0.00000  Uiso   1.00
C300   C     0.85245   0.35665   0.13029   0.00000  Uiso   1.00
C301   C     0.81422   0.64335   0.20305   0.00000  Uiso   1.00
C302   C     0.83960   0.64772   0.12480   0.00000  Uiso   1.00
Cl303  Cl    0.98312   0.46453   0.10125   0.00000  Uiso   1.00
Cl304  Cl    0.68354   0.53547   0.23208   0.00000  Uiso   1.00
Cl305  Cl    0.88809   0.38411   0.08975   0.00000  Uiso   1.00
Cl306  Cl    0.77858   0.61589   0.24358   0.00000  Uiso   1.00
Cu307  Cu    0.83333   0.50001   0.21355   0.00000  Uiso   1.00
Cu308  Cu    0.83333   0.49999   0.11978   0.00000  Uiso   1.00
H309   H     0.78863   0.59732   0.02704   0.00000  Uiso   1.00
H310   H     0.87804   0.40268   0.30629   0.00000  Uiso   1.00
H311   H     0.72499   0.40751   0.07976   0.00000  Uiso   1.00
H312   H     0.94167   0.59249   0.25357   0.00000  Uiso   1.00
H313   H     0.67532   0.44024   0.27295   0.00000  Uiso   1.00
H314   H     0.99135   0.55976   0.06038   0.00000  Uiso   1.00
N315   N     0.83335   0.50001   0.28403   0.00000  Uiso   1.00
N316   N     0.83332   0.49999   0.04931   0.00000  Uiso   1.00
O317   O     0.83333   0.43989   0.20625   0.00000  Uiso   1.00
O318   O     0.78840   0.60723   0.05991   0.00000  Uiso   1.00
O319   O     0.79925   0.36220   0.28115   0.00000  Uiso   1.00
O320   O     0.87827   0.39277   0.27342   0.00000  Uiso   1.00
O321   O     0.78890   0.40102   0.03071   0.00000  Uiso   1.00
O322   O     0.73827   0.43581   0.06903   0.00000  Uiso   1.00
O323   O     0.87776   0.59898   0.30262   0.00000  Uiso   1.00
O324   O     0.92840   0.56419   0.26430   0.00000  Uiso   1.00
O325   O     0.75467   0.43129   0.24547   0.00000  Uiso   1.00
O326   O     0.70437   0.45637   0.29308   0.00000  Uiso   1.00
O327   O     0.91200   0.56871   0.08786   0.00000  Uiso   1.00
O328   O     0.83334   0.56011   0.12709   0.00000  Uiso   1.00
O329   O     0.96229   0.54363   0.04025   0.00000  Uiso   1.00
O330   O     0.83333   0.43988   0.12706   0.00000  Uiso   1.00
O331   O     0.83334   0.56012   0.20628   0.00000  Uiso   1.00
O332   O     0.75828   0.50000   0.19712   0.00000  Uiso   1.00
O333   O     0.90839   0.50000   0.13621   0.00000  Uiso   1.00
O334   O     0.75828   0.49999   0.11793   0.00000  Uiso   1.00
O335   O     0.90839   0.50001   0.21540   0.00000  Uiso   1.00
O336   O     0.86742   0.63780   0.05218   0.00000  Uiso   1.00
C337   C     0.17052   0.75440   0.16787   0.00000  Uiso   1.00
C338   C     0.16040   0.68561   0.20853   0.00000  Uiso   1.00
C339   C     0.15869   0.95708   0.16334   0.00000  Uiso   1.00
C340   C     0.17464   0.70959   0.17000   0.00000  Uiso   1.00
C341   C     0.13474   0.80559   0.02142   0.00000  Uiso   1.00
C342   C     0.19860   0.86108   0.31192   0.00000  Uiso   1.00
C343   C     0.13195   0.80772   0.30526   0.00000  Uiso   1.00
C344   C     0.20138   0.85895   0.02808   0.00000  Uiso   1.00
C345   C     0.16707   0.96393   0.07703   0.00000  Uiso   1.00
C346   C     0.16626   0.70273   0.25630   0.00000  Uiso   1.00
C347   C     0.11022   0.76771   0.04130   0.00000  Uiso   1.00
C348   C     0.16282   0.91227   0.16547   0.00000  Uiso   1.00
C349   C     0.22311   0.89896   0.29203   0.00000  Uiso   1.00
C350   C     0.08538   0.78636   0.27840   0.00000  Uiso   1.00
C351   C     0.24795   0.88031   0.05493   0.00000  Uiso   1.00
C352   C     0.06813   0.83264   0.15491   0.00000  Uiso   1.00
C353   C     0.26520   0.83403   0.17842   0.00000  Uiso   1.00
C354   C     0.01289   0.82721   0.14973   0.00000  Uiso   1.00
C355   C     0.32044   0.83945   0.18360   0.00000  Uiso   1.00
C356   C     0.18578   0.68999   0.13029   0.00000  Uiso   1.00
C357   C     0.14755   0.97668   0.20305   0.00000  Uiso   1.00
C358   C     0.17294   0.98105   0.12480   0.00000  Uiso   1.00
Cl359  Cl    0.31646   0.79786   0.10125   0.00000  Uiso   1.00
Cl360  Cl    0.01688   0.86881   0.23208   0.00000  Uiso   1.00
Cl361  Cl    0.22142   0.71745   0.08975   0.00000  Uiso   1.00
Cl362  Cl    0.11191   0.94922   0.24358   0.00000  Uiso   1.00
Cu363  Cu    0.16667   0.83334   0.21355   0.00000  Uiso   1.00
Cu364  Cu    0.16667   0.83333   0.11978   0.00000  Uiso   1.00
H365   H     0.12196   0.93065   0.02704   0.00000  Uiso   1.00
H366   H     0.21137   0.73602   0.30629   0.00000  Uiso   1.00
H367   H     0.05833   0.74084   0.07976   0.00000  Uiso   1.00
H368   H     0.27501   0.92583   0.25357   0.00000  Uiso   1.00
H369   H     0.00865   0.77357   0.27295   0.00000  Uiso   1.00
H370   H     0.32468   0.89310   0.06038   0.00000  Uiso   1.00
N371   N     0.16668   0.83334   0.28403   0.00000  Uiso   1.00
N372   N     0.16665   0.83332   0.04931   0.00000  Uiso   1.00
O373   O     0.16666   0.77322   0.20625   0.00000  Uiso   1.00
O374   O     0.12173   0.94056   0.05991   0.00000  Uiso   1.00
O375   O     0.13258   0.69553   0.28115   0.00000  Uiso   1.00
O376   O     0.21160   0.72610   0.27342   0.00000  Uiso   1.00
O377   O     0.12224   0.73436   0.03071   0.00000  Uiso   1.00
O378   O     0.07160   0.76914   0.06903   0.00000  Uiso   1.00
O379   O     0.21110   0.93231   0.30262   0.00000  Uiso   1.00
O380   O     0.26173   0.89752   0.26430   0.00000  Uiso   1.00
O381   O     0.08801   0.76463   0.24547   0.00000  Uiso   1.00
O382   O     0.03771   0.78971   0.29308   0.00000  Uiso   1.00
O383   O     0.24533   0.90204   0.08786   0.00000  Uiso   1.00
O384   O     0.16667   0.89345   0.12709   0.00000  Uiso   1.00
O385   O     0.29563   0.87696   0.04025   0.00000  Uiso   1.00
O386   O     0.16666   0.77321   0.12706   0.00000  Uiso   1.00
O387   O     0.16667   0.89346   0.20628   0.00000  Uiso   1.00
O388   O     0.09161   0.83334   0.19712   0.00000  Uiso   1.00
O389   O     0.24172   0.83333   0.13621   0.00000  Uiso   1.00
O390   O     0.09161   0.83333   0.11793   0.00000  Uiso   1.00
O391   O     0.24172   0.83334   0.21540   0.00000  Uiso   1.00
O392   O     0.20075   0.97113   0.05218   0.00000  Uiso   1.00
C393   C     0.50385   0.75440   0.16787   0.00000  Uiso   1.00
C394   C     0.49373   0.68561   0.20853   0.00000  Uiso   1.00
C395   C     0.49203   0.95708   0.16334   0.00000  Uiso   1.00
C396   C     0.50797   0.70959   0.17000   0.00000  Uiso   1.00
C397   C     0.46807   0.80559   0.02142   0.00000  Uiso   1.00
C398   C     0.53193   0.86108   0.31192   0.00000  Uiso   1.00
C399   C     0.46529   0.80772   0.30526   0.00000  Uiso   1.00
C400   C     0.53471   0.85895   0.02808   0.00000  Uiso   1.00
C401   C     0.50041   0.96393   0.07703   0.00000  Uiso   1.00
C402   C     0.49959   0.70273   0.25630   0.00000  Uiso   1.00
C403   C     0.44356   0.76771   0.04130   0.00000  Uiso   1.00
C404   C     0.49615   0.91227   0.16547   0.00000  Uiso   1.00
C405   C     0.55644   0.89896   0.29203   0.00000  Uiso   1.00
C406   C     0.41871   0.78636   0.27840   0.00000  Uiso   1.00
C407   C     0.58129   0.88031   0.05493   0.00000  Uiso   1.00
C408   C     0.40147   0.83264   0.15491   0.00000  Uiso   1.00
C409   C     0.59853   0.83403   0.17842   0.00000  Uiso   1.00
C410   C     0.34623   0.82721   0.14973   0.00000  Uiso   1.00
C411   C     0.65377   0.83945   0.18360   0.00000  Uiso   1.00
C412   C     0.51912   0.68999   0.13029   0.00000  Uiso   1.00
C413   C     0.48088   0.97668   0.20305   0.00000  Uiso   1.00
C414   C     0.50627   0.98105   0.12480   0.00000  Uiso   1.00
Cl415  Cl    0.64979   0.79786   0.10125   0.00000  Uiso   1.00
Cl416  Cl    0.35021   0.86881   0.23208   0.00000  Uiso   1.00
Cl417  Cl    0.55476   0.71745   0.08975   0.00000  Uiso   1.00
Cl418  Cl    0.44524   0.94922   0.24358   0.00000  Uiso   1.00
Cu419  Cu    0.50000   0.83334   0.21355   0.00000  Uiso   1.00
Cu420  Cu    0.50000   0.83333   0.11978   0.00000  Uiso   1.00
H421   H     0.45530   0.93065   0.02704   0.00000  Uiso   1.00
H422   H     0.54470   0.73602   0.30629   0.00000  Uiso   1.00
H423   H     0.39166   0.74084   0.07976   0.00000  Uiso   1.00
H424   H     0.60834   0.92583   0.25357   0.00000  Uiso   1.00
H425   H     0.34198   0.77357   0.27295   0.00000  Uiso   1.00
H426   H     0.65802   0.89310   0.06038   0.00000  Uiso   1.00
N427   N     0.50001   0.83334   0.28403   0.00000  Uiso   1.00
N428   N     0.49999   0.83332   0.04931   0.00000  Uiso   1.00
O429   O     0.50000   0.77322   0.20625   0.00000  Uiso   1.00
O430   O     0.45506   0.94056   0.05991   0.00000  Uiso   1.00
O431   O     0.46592   0.69553   0.28115   0.00000  Uiso   1.00
O432   O     0.54494   0.72610   0.27342   0.00000  Uiso   1.00
O433   O     0.45557   0.73436   0.03071   0.00000  Uiso   1.00
O434   O     0.40493   0.76914   0.06903   0.00000  Uiso   1.00
O435   O     0.54443   0.93231   0.30262   0.00000  Uiso   1.00
O436   O     0.59507   0.89752   0.26430   0.00000  Uiso   1.00
O437   O     0.42134   0.76463   0.24547   0.00000  Uiso   1.00
O438   O     0.37104   0.78971   0.29308   0.00000  Uiso   1.00
O439   O     0.57866   0.90204   0.08786   0.00000  Uiso   1.00
O440   O     0.50000   0.89345   0.12709   0.00000  Uiso   1.00
O441   O     0.62896   0.87696   0.04025   0.00000  Uiso   1.00
O442   O     0.50000   0.77321   0.12706   0.00000  Uiso   1.00
O443   O     0.50000   0.89346   0.20628   0.00000  Uiso   1.00
O444   O     0.42495   0.83334   0.19712   0.00000  Uiso   1.00
O445   O     0.57505   0.83333   0.13621   0.00000  Uiso   1.00
O446   O     0.42494   0.83333   0.11793   0.00000  Uiso   1.00
O447   O     0.57506   0.83334   0.21540   0.00000  Uiso   1.00
O448   O     0.53408   0.97113   0.05218   0.00000  Uiso   1.00
C449   C     0.83718   0.75440   0.16787   0.00000  Uiso   1.00
C450   C     0.82706   0.68561   0.20853   0.00000  Uiso   1.00
C451   C     0.82536   0.95708   0.16334   0.00000  Uiso   1.00
C452   C     0.84131   0.70959   0.17000   0.00000  Uiso   1.00
C453   C     0.80140   0.80559   0.02142   0.00000  Uiso   1.00
C454   C     0.86526   0.86108   0.31192   0.00000  Uiso   1.00
C455   C     0.79862   0.80772   0.30526   0.00000  Uiso   1.00
C456   C     0.86805   0.85895   0.02808   0.00000  Uiso   1.00
C457   C     0.83374   0.96393   0.07703   0.00000  Uiso   1.00
C458   C     0.83293   0.70273   0.25630   0.00000  Uiso   1.00
C459   C     0.77689   0.76771   0.04130   0.00000  Uiso   1.00
C460   C     0.82949   0.91227   0.16547   0.00000  Uiso   1.00
C461   C     0.88978   0.89896   0.29203   0.00000  Uiso   1.00
C462   C     0.75205   0.78636   0.27840   0.00000  Uiso   1.00
C463   C     0.91462   0.88031   0.05493   0.00000  Uiso   1.00
C464   C     0.73480   0.83264   0.15491   0.00000  Uiso   1.00
C465   C     0.93187   0.83403   0.17842   0.00000  Uiso   1.00
C466   C     0.67956   0.82721   0.14973   0.00000  Uiso   1.00
C467   C     0.98711   0.83945   0.18360   0.00000  Uiso   1.00
C468   C     0.85245   0.68999   0.13029   0.00000  Uiso   1.00
C469   C     0.81422   0.97668   0.20305   0.00000  Uiso   1.00
C470   C     0.83960   0.98105   0.12480   0.00000  Uiso   1.00
Cl471  Cl    0.98312   0.79786   0.10125   0.00000  Uiso   1.00
Cl472  Cl    0.68354   0.86881   0.23208   0.00000  Uiso   1.00
Cl473  Cl    0.88809   0.71745   0.08975   0.00000  Uiso   1.00
Cl474  Cl    0.77858   0.94922   0.24358   0.00000  Uiso   1.00
Cu475  Cu    0.83333   0.83334   0.21355   0.00000  Uiso   1.00
Cu476  Cu    0.83333   0.83333   0.11978   0.00000  Uiso   1.00
H477   H     0.78863   0.93065   0.02704   0.00000  Uiso   1.00
H478   H     0.87804   0.73602   0.30629   0.00000  Uiso   1.00
H479   H     0.72499   0.74084   0.07976   0.00000  Uiso   1.00
H480   H     0.94167   0.92583   0.25357   0.00000  Uiso   1.00
H481   H     0.67532   0.77357   0.27295   0.00000  Uiso   1.00
H482   H     0.99135   0.89310   0.06038   0.00000  Uiso   1.00
N483   N     0.83335   0.83334   0.28403   0.00000  Uiso   1.00
N484   N     0.83332   0.83332   0.04931   0.00000  Uiso   1.00
O485   O     0.83333   0.77322   0.20625   0.00000  Uiso   1.00
O486   O     0.78840   0.94056   0.05991   0.00000  Uiso   1.00
O487   O     0.79925   0.69553   0.28115   0.00000  Uiso   1.00
O488   O     0.87827   0.72610   0.27342   0.00000  Uiso   1.00
O489   O     0.78890   0.73436   0.03071   0.00000  Uiso   1.00
O490   O     0.73827   0.76914   0.06903   0.00000  Uiso   1.00
O491   O     0.87776   0.93231   0.30262   0.00000  Uiso   1.00
O492   O     0.92840   0.89752   0.26430   0.00000  Uiso   1.00
O493   O     0.75467   0.76463   0.24547   0.00000  Uiso   1.00
O494   O     0.70437   0.78971   0.29308   0.00000  Uiso   1.00
O495   O     0.91200   0.90204   0.08786   0.00000  Uiso   1.00
O496   O     0.83334   0.89345   0.12709   0.00000  Uiso   1.00
O497   O     0.96229   0.87696   0.04025   0.00000  Uiso   1.00
O498   O     0.83333   0.77321   0.12706   0.00000  Uiso   1.00
O499   O     0.83334   0.89346   0.20628   0.00000  Uiso   1.00
O500   O     0.75828   0.83334   0.19712   0.00000  Uiso   1.00
O501   O     0.90839   0.83333   0.13621   0.00000  Uiso   1.00
O502   O     0.75828   0.83333   0.11793   0.00000  Uiso   1.00
O503   O     0.90839   0.83334   0.21540   0.00000  Uiso   1.00
O504   O     0.86742   0.97113   0.05218   0.00000  Uiso   1.00
C505   C     0.17052   0.08773   0.50120   0.00000  Uiso   1.00
C506   C     0.16040   0.01895   0.54186   0.00000  Uiso   1.00
C507   C     0.15869   0.29041   0.49667   0.00000  Uiso   1.00
C508   C     0.17464   0.04292   0.50333   0.00000  Uiso   1.00
C509   C     0.13474   0.13892   0.35475   0.00000  Uiso   1.00
C510   C     0.19860   0.19441   0.64525   0.00000  Uiso   1.00
C511   C     0.13195   0.14105   0.63859   0.00000  Uiso   1.00
C512   C     0.20138   0.19228   0.36141   0.00000  Uiso   1.00
C513   C     0.16707   0.29727   0.41037   0.00000  Uiso   1.00
C514   C     0.16626   0.03607   0.58963   0.00000  Uiso   1.00
C515   C     0.11022   0.10104   0.37464   0.00000  Uiso   1.00
C516   C     0.16282   0.24560   0.49880   0.00000  Uiso   1.00
C517   C     0.22311   0.23229   0.62536   0.00000  Uiso   1.00
C518   C     0.08538   0.11969   0.61173   0.00000  Uiso   1.00
C519   C     0.24795   0.21364   0.38827   0.00000  Uiso   1.00
C520   C     0.06813   0.16597   0.48825   0.00000  Uiso   1.00
C521   C     0.26520   0.16736   0.51175   0.00000  Uiso   1.00
C522   C     0.01289   0.16055   0.48306   0.00000  Uiso   1.00
C523   C     0.32044   0.17279   0.51694   0.00000  Uiso   1.00
C524   C     0.18578   0.02332   0.46362   0.00000  Uiso   1.00
C525   C     0.14755   0.31001   0.53638   0.00000  Uiso   1.00
C526   C     0.17294   0.31439   0.45814   0.00000  Uiso   1.00
Cl527  Cl    0.31646   0.13119   0.43458   0.00000  Uiso   1.00
Cl528  Cl    0.01688   0.20214   0.56542   0.00000  Uiso   1.00
Cl529  Cl    0.22142   0.05078   0.42309   0.00000  Uiso   1.00
Cl530  Cl    0.11191   0.28255   0.57691   0.00000  Uiso   1.00
Cu531  Cu    0.16667   0.16667   0.54689   0.00000  Uiso   1.00
Cu532  Cu    0.16667   0.16666   0.45311   0.00000  Uiso   1.00
H533   H     0.12196   0.26398   0.36037   0.00000  Uiso   1.00
H534   H     0.21137   0.06935   0.63963   0.00000  Uiso   1.00
H535   H     0.05833   0.07417   0.41310   0.00000  Uiso   1.00
H536   H     0.27501   0.25916   0.58690   0.00000  Uiso   1.00
H537   H     0.00865   0.10690   0.60628   0.00000  Uiso   1.00
H538   H     0.32468   0.22643   0.39372   0.00000  Uiso   1.00
N539   N     0.16668   0.16668   0.61736   0.00000  Uiso   1.00
N540   N     0.16665   0.16666   0.38264   0.00000  Uiso   1.00
O541   O     0.16666   0.10655   0.53958   0.00000  Uiso   1.00
O542   O     0.12173   0.27390   0.39325   0.00000  Uiso   1.00
O543   O     0.13258   0.02887   0.61449   0.00000  Uiso   1.00
O544   O     0.21160   0.05944   0.60675   0.00000  Uiso   1.00
O545   O     0.12224   0.06769   0.36404   0.00000  Uiso   1.00
O546   O     0.07160   0.10248   0.40236   0.00000  Uiso   1.00
O547   O     0.21110   0.26564   0.63596   0.00000  Uiso   1.00
O548   O     0.26173   0.23086   0.59764   0.00000  Uiso   1.00
O549   O     0.08801   0.09796   0.57881   0.00000  Uiso   1.00
O550   O     0.03771   0.12304   0.62641   0.00000  Uiso   1.00
O551   O     0.24533   0.23537   0.42119   0.00000  Uiso   1.00
O552   O     0.16667   0.22678   0.46042   0.00000  Uiso   1.00
O553   O     0.29563   0.21029   0.37359   0.00000  Uiso   1.00
O554   O     0.16666   0.10654   0.46039   0.00000  Uiso   1.00
O555   O     0.16667   0.22679   0.53961   0.00000  Uiso   1.00
O556   O     0.09161   0.16667   0.53046   0.00000  Uiso   1.00
O557   O     0.24172   0.16666   0.46954   0.00000  Uiso   1.00
O558   O     0.09161   0.16666   0.45127   0.00000  Uiso   1.00
O559   O     0.24172   0.16667   0.54873   0.00000  Uiso   1.00
O560   O     0.20075   0.30447   0.38551   0.00000  Uiso   1.00
C561   C     0.50385   0.08773   0.50120   0.00000  Uiso   1.00
C562   C     0.49373   0.01895   0.54186   0.00000  Uiso   1.00
C563   C     0.49203   0.29041   0.49667   0.00000  Uiso   1.00
C564   C     0.50797   0.04292   0.50333   0.00000  Uiso   1.00
C565   C     0.46807   0.13892   0.35475   0.00000  Uiso   1.00
C566   C     0.53193   0.19441   0.64525   0.00000  Uiso   1.00
C567   C     0.46529   0.14105   0.63859   0.00000  Uiso   1.00
C568   C     0.53471   0.19228   0.36141   0.00000  Uiso   1.00
C569   C     0.50041   0.29727   0.41037   0.00000  Uiso   1.00
C570   C     0.49959   0.03607   0.58963   0.00000  Uiso   1.00
C571   C     0.44356   0.10104   0.37464   0.00000  Uiso   1.00
C572   C     0.49615   0.24560   0.49880   0.00000  Uiso   1.00
C573   C     0.55644   0.23229   0.62536   0.00000  Uiso   1.00
C574   C     0.41871   0.11969   0.61173   0.00000  Uiso   1.00
C575   C     0.58129   0.21364   0.38827   0.00000  Uiso   1.00
C576   C     0.40147   0.16597   0.48825   0.00000  Uiso   1.00
C577   C     0.59853   0.16736   0.51175   0.00000  Uiso   1.00
C578   C     0.34623   0.16055   0.48306   0.00000  Uiso   1.00
C579   C     0.65377   0.17279   0.51694   0.00000  Uiso   1.00
C580   C     0.51912   0.02332   0.46362   0.00000  Uiso   1.00
C581   C     0.48088   0.31001   0.53638   0.00000  Uiso   1.00
C582   C     0.50627   0.31439   0.45814   0.00000  Uiso   1.00
Cl583  Cl    0.64979   0.13119   0.43458   0.00000  Uiso   1.00
Cl584  Cl    0.35021   0.20214   0.56542   0.00000  Uiso   1.00
Cl585  Cl    0.55476   0.05078   0.42309   0.00000  Uiso   1.00
Cl586  Cl    0.44524   0.28255   0.57691   0.00000  Uiso   1.00
Cu587  Cu    0.50000   0.16667   0.54689   0.00000  Uiso   1.00
Cu588  Cu    0.50000   0.16666   0.45311   0.00000  Uiso   1.00
H589   H     0.45530   0.26398   0.36037   0.00000  Uiso   1.00
H590   H     0.54470   0.06935   0.63963   0.00000  Uiso   1.00
H591   H     0.39166   0.07417   0.41310   0.00000  Uiso   1.00
H592   H     0.60834   0.25916   0.58690   0.00000  Uiso   1.00
H593   H     0.34198   0.10690   0.60628   0.00000  Uiso   1.00
H594   H     0.65802   0.22643   0.39372   0.00000  Uiso   1.00
N595   N     0.50001   0.16668   0.61736   0.00000  Uiso   1.00
N596   N     0.49999   0.16666   0.38264   0.00000  Uiso   1.00
O597   O     0.50000   0.10655   0.53958   0.00000  Uiso   1.00
O598   O     0.45506   0.27390   0.39325   0.00000  Uiso   1.00
O599   O     0.46592   0.02887   0.61449   0.00000  Uiso   1.00
O600   O     0.54494   0.05944   0.60675   0.00000  Uiso   1.00
O601   O     0.45557   0.06769   0.36404   0.00000  Uiso   1.00
O602   O     0.40493   0.10248   0.40236   0.00000  Uiso   1.00
O603   O     0.54443   0.26564   0.63596   0.00000  Uiso   1.00
O604   O     0.59507   0.23086   0.59764   0.00000  Uiso   1.00
O605   O     0.42134   0.09796   0.57881   0.00000  Uiso   1.00
O606   O     0.37104   0.12304   0.62641   0.00000  Uiso   1.00
O607   O     0.57866   0.23537   0.42119   0.00000  Uiso   1.00
O608   O     0.50000   0.22678   0.46042   0.00000  Uiso   1.00
O609   O     0.62896   0.21029   0.37359   0.00000  Uiso   1.00
O610   O     0.50000   0.10654   0.46039   0.00000  Uiso   1.00
O611   O     0.50000   0.22679   0.53961   0.00000  Uiso   1.00
O612   O     0.42495   0.16667   0.53046   0.00000  Uiso   1.00
O613   O     0.57505   0.16666   0.46954   0.00000  Uiso   1.00
O614   O     0.42494   0.16666   0.45127   0.00000  Uiso   1.00
O615   O     0.57506   0.16667   0.54873   0.00000  Uiso   1.00
O616   O     0.53408   0.30447   0.38551   0.00000  Uiso   1.00
C617   C     0.83718   0.08773   0.50120   0.00000  Uiso   1.00
C618   C     0.82706   0.01895   0.54186   0.00000  Uiso   1.00
C619   C     0.82536   0.29041   0.49667   0.00000  Uiso   1.00
C620   C     0.84131   0.04292   0.50333   0.00000  Uiso   1.00
C621   C     0.80140   0.13892   0.35475   0.00000  Uiso   1.00
C622   C     0.86526   0.19441   0.64525   0.00000  Uiso   1.00
C623   C     0.79862   0.14105   0.63859   0.00000  Uiso   1.00
C624   C     0.86805   0.19228   0.36141   0.00000  Uiso   1.00
C625   C     0.83374   0.29727   0.41037   0.00000  Uiso   1.00
C626   C     0.83293   0.03607   0.58963   0.00000  Uiso   1.00
C627   C     0.77689   0.10104   0.37464   0.00000  Uiso   1.00
C628   C     0.82949   0.24560   0.49880   0.00000  Uiso   1.00
C629   C     0.88978   0.23229   0.62536   0.00000  Uiso   1.00
C630   C     0.75205   0.11969   0.61173   0.00000  Uiso   1.00
C631   C     0.91462   0.21364   0.38827   0.00000  Uiso   1.00
C632   C     0.73480   0.16597   0.48825   0.00000  Uiso   1.00
C633   C     0.93187   0.16736   0.51175   0.00000  Uiso   1.00
C634   C     0.67956   0.16055   0.48306   0.00000  Uiso   1.00
C635   C     0.98711   0.17279   0.51694   0.00000  Uiso   1.00
C636   C     0.85245   0.02332   0.46362   0.00000  Uiso   1.00
C637   C     0.81422   0.31001   0.53638   0.00000  Uiso   1.00
C638   C     0.83960   0.31439   0.45814   0.00000  Uiso   1.00
Cl639  Cl    0.98312   0.13119   0.43458   0.00000  Uiso   1.00
Cl640  Cl    0.68354   0.20214   0.56542   0.00000  Uiso   1.00
Cl641  Cl    0.88809   0.05078   0.42309   0.00000  Uiso   1.00
Cl642  Cl    0.77858   0.28255   0.57691   0.00000  Uiso   1.00
Cu643  Cu    0.83333   0.16667   0.54689   0.00000  Uiso   1.00
Cu644  Cu    0.83333   0.16666   0.45311   0.00000  Uiso   1.00
H645   H     0.78863   0.26398   0.36037   0.00000  Uiso   1.00
H646   H     0.87804   0.06935   0.63963   0.00000  Uiso   1.00
H647   H     0.72499   0.07417   0.41310   0.00000  Uiso   1.00
H648   H     0.94167   0.25916   0.58690   0.00000  Uiso   1.00
H649   H     0.67532   0.10690   0.60628   0.00000  Uiso   1.00
H650   H     0.99135   0.22643   0.39372   0.00000  Uiso   1.00
N651   N     0.83335   0.16668   0.61736   0.00000  Uiso   1.00
N652   N     0.83332   0.16666   0.38264   0.00000  Uiso   1.00
O653   O     0.83333   0.10655   0.53958   0.00000  Uiso   1.00
O654   O     0.78840   0.27390   0.39325   0.00000  Uiso   1.00
O655   O     0.79925   0.02887   0.61449   0.00000  Uiso   1.00
O656   O     0.87827   0.05944   0.60675   0.00000  Uiso   1.00
O657   O     0.78890   0.06769   0.36404   0.00000  Uiso   1.00
O658   O     0.73827   0.10248   0.40236   0.00000  Uiso   1.00
O659   O     0.87776   0.26564   0.63596   0.00000  Uiso   1.00
O660   O     0.92840   0.23086   0.59764   0.00000  Uiso   1.00
O661   O     0.75467   0.09796   0.57881   0.00000  Uiso   1.00
O662   O     0.70437   0.12304   0.62641   0.00000  Uiso   1.00
O663   O     0.91200   0.23537   0.42119   0.00000  Uiso   1.00
O664   O     0.83334   0.22678   0.46042   0.00000  Uiso   1.00
O665   O     0.96229   0.21029   0.37359   0.00000  Uiso   1.00
O666   O     0.83333   0.10654   0.46039   0.00000  Uiso   1.00
O667   O     0.83334   0.22679   0.53961   0.00000  Uiso   1.00
O668   O     0.75828   0.16667   0.53046   0.00000  Uiso   1.00
O669   O     0.90839   0.16666   0.46954   0.00000  Uiso   1.00
O670   O     0.75828   0.16666   0.45127   0.00000  Uiso   1.00
O671   O     0.90839   0.16667   0.54873   0.00000  Uiso   1.00
O672   O     0.86742   0.30447   0.38551   0.00000  Uiso   1.00
C673   C     0.17052   0.42106   0.50120   0.00000  Uiso   1.00
C674   C     0.16040   0.35228   0.54186   0.00000  Uiso   1.00
C675   C     0.15869   0.62374   0.49667   0.00000  Uiso   1.00
C676   C     0.17464   0.37626   0.50333   0.00000  Uiso   1.00
C677   C     0.13474   0.47225   0.35475   0.00000  Uiso   1.00
C678   C     0.19860   0.52775   0.64525   0.00000  Uiso   1.00
C679   C     0.13195   0.47439   0.63859   0.00000  Uiso   1.00
C680   C     0.20138   0.52561   0.36141   0.00000  Uiso   1.00
C681   C     0.16707   0.63060   0.41037   0.00000  Uiso   1.00
C682   C     0.16626   0.36940   0.58963   0.00000  Uiso   1.00
C683   C     0.11022   0.43438   0.37464   0.00000  Uiso   1.00
C684   C     0.16282   0.57894   0.49880   0.00000  Uiso   1.00
C685   C     0.22311   0.56562   0.62536   0.00000  Uiso   1.00
C686   C     0.08538   0.45302   0.61173   0.00000  Uiso   1.00
C687   C     0.24795   0.54698   0.38827   0.00000  Uiso   1.00
C688   C     0.06813   0.49931   0.48825   0.00000  Uiso   1.00
C689   C     0.26520   0.50069   0.51175   0.00000  Uiso   1.00
C690   C     0.01289   0.49388   0.48306   0.00000  Uiso   1.00
C691   C     0.32044   0.50612   0.51694   0.00000  Uiso   1.00
C692   C     0.18578   0.35665   0.46362   0.00000  Uiso   1.00
C693   C     0.14755   0.64335   0.53638   0.00000  Uiso   1.00
C694   C     0.17294   0.64772   0.45814   0.00000  Uiso   1.00
Cl695  Cl    0.31646   0.46453   0.43458   0.00000  Uiso   1.00
Cl696  Cl    0.01688   0.53547   0.56542   0.00000  Uiso   1.00
Cl697  Cl    0.22142   0.38411   0.42309   0.00000  Uiso   1.00
Cl698  Cl    0.11191   0.61589   0.57691   0.00000  Uiso   1.00
Cu699  Cu    0.16667   0.50001   0.54689   0.00000  Uiso   1.00
Cu700  Cu    0.16667   0.49999   0.45311   0.00000  Uiso   1.00
H701   H     0.12196   0.59732   0.36037   0.00000  Uiso   1.00
H702   H     0.21137   0.40268   0.63963   0.00000  Uiso   1.00
H703   H     0.05833   0.40751   0.41310   0.00000  Uiso   1.00
H704   H     0.27501   0.59249   0.58690   0.00000  Uiso   1.00
H705   H     0.00865   0.44024   0.60628   0.00000  Uiso   1.00
H706   H     0.32468   0.55976   0.39372   0.00000  Uiso   1.00
N707   N     0.16668   0.50001   0.61736   0.00000  Uiso   1.00
N708   N     0.16665   0.49999   0.38264   0.00000  Uiso   1.00
O709   O     0.16666   0.43989   0.53958   0.00000  Uiso   1.00
O710   O     0.12173   0.60723   0.39325   0.00000  Uiso   1.00
O711   O     0.13258   0.36220   0.61449   0.00000  Uiso   1.00
O712   O     0.21160   0.39277   0.60675   0.00000  Uiso   1.00
O713   O     0.12224   0.40102   0.36404   0.00000  Uiso   1.00
O714   O     0.07160   0.43581   0.40236   0.00000  Uiso   1.00
O715   O     0.21110   0.59898   0.63596   0.00000  Uiso   1.00
O716   O     0.26173   0.56419   0.59764   0.00000  Uiso   1.00
O717   O     0.08801   0.43129   0.57881   0.00000  Uiso   1.00
O718   O     0.03771   0.45637   0.62641   0.00000  Uiso   1.00
O719   O     0.24533   0.56871   0.42119   0.00000  Uiso   1.00
O720   O     0.16667   0.56011   0.46042   0.00000  Uiso   1.00
O721   O     0.29563   0.54363   0.37359   0.00000  Uiso   1.00
O722   O     0.16666   0.43988   0.46039   0.00000  Uiso   1.00
O723   O     0.16667   0.56012   0.53961   0.00000  Uiso   1.00
O724   O     0.09161   0.50000   0.53046   0.00000  Uiso   1.00
O725   O     0.24172   0.50000   0.46954   0.00000  Uiso   1.00
O726   O     0.09161   0.49999   0.45127   0.00000  Uiso   1.00
O727   O     0.24172   0.50001   0.54873   0.00000  Uiso   1.00
O728   O     0.20075   0.63780   0.38551   0.00000  Uiso   1.00
C729   C     0.50385   0.42106   0.50120   0.00000  Uiso   1.00
C730   C     0.49373   0.35228   0.54186   0.00000  Uiso   1.00
C731   C     0.49203   0.62374   0.49667   0.00000  Uiso   1.00
C732   C     0.50797   0.37626   0.50333   0.00000  Uiso   1.00
C733   C     0.46807   0.47225   0.35475   0.00000  Uiso   1.00
C734   C     0.53193   0.52775   0.64525   0.00000  Uiso   1.00
C735   C     0.46529   0.47439   0.63859   0.00000  Uiso   1.00
C736   C     0.53471   0.52561   0.36141   0.00000  Uiso   1.00
C737   C     0.50041   0.63060   0.41037   0.00000  Uiso   1.00
C738   C     0.49959   0.36940   0.58963   0.00000  Uiso   1.00
C739   C     0.44356   0.43438   0.37464   0.00000  Uiso   1.00
C740   C     0.49615   0.57894   0.49880   0.00000  Uiso   1.00
C741   C     0.55644   0.56562   0.62536   0.00000  Uiso   1.00
C742   C     0.41871   0.45302   0.61173   0.00000  Uiso   1.00
C743   C     0.58129   0.54698   0.38827   0.00000  Uiso   1.00
C744   C     0.40147   0.49931   0.48825   0.00000  Uiso   1.00
C745   C     0.59853   0.50069   0.51175   0.00000  Uiso   1.00
C746   C     0.34623   0.49388   0.48306   0.00000  Uiso   1.00
C747   C     0.65377   0.50612   0.51694   0.00000  Uiso   1.00
C748   C     0.51912   0.35665   0.46362   0.00000  Uiso   1.00
C749   C     0.48088   0.64335   0.53638   0.00000  Uiso   1.00
C750   C     0.50627   0.64772   0.45814   0.00000  Uiso   1.00
Cl751  Cl    0.64979   0.46453   0.43458   0.00000  Uiso   1.00
Cl752  Cl    0.35021   0.53547   0.56542   0.00000  Uiso   1.00
Cl753  Cl    0.55476   0.38411   0.42309   0.00000  Uiso   1.00
Cl754  Cl    0.44524   0.61589   0.57691   0.00000  Uiso   1.00
Cu755  Cu    0.50000   0.50001   0.54689   0.00000  Uiso   1.00
Cu756  Cu    0.50000   0.49999   0.45311   0.00000  Uiso   1.00
H757   H     0.45530   0.59732   0.36037   0.00000  Uiso   1.00
H758   H     0.54470   0.40268   0.63963   0.00000  Uiso   1.00
H759   H     0.39166   0.40751   0.41310   0.00000  Uiso   1.00
H760   H     0.60834   0.59249   0.58690   0.00000  Uiso   1.00
H761   H     0.34198   0.44024   0.60628   0.00000  Uiso   1.00
H762   H     0.65802   0.55976   0.39372   0.00000  Uiso   1.00
N763   N     0.50001   0.50001   0.61736   0.00000  Uiso   1.00
N764   N     0.49999   0.49999   0.38264   0.00000  Uiso   1.00
O765   O     0.50000   0.43989   0.53958   0.00000  Uiso   1.00
O766   O     0.45506   0.60723   0.39325   0.00000  Uiso   1.00
O767   O     0.46592   0.36220   0.61449   0.00000  Uiso   1.00
O768   O     0.54494   0.39277   0.60675   0.00000  Uiso   1.00
O769   O     0.45557   0.40102   0.36404   0.00000  Uiso   1.00
O770   O     0.40493   0.43581   0.40236   0.00000  Uiso   1.00
O771   O     0.54443   0.59898   0.63596   0.00000  Uiso   1.00
O772   O     0.59507   0.56419   0.59764   0.00000  Uiso   1.00
O773   O     0.42134   0.43129   0.57881   0.00000  Uiso   1.00
O774   O     0.37104   0.45637   0.62641   0.00000  Uiso   1.00
O775   O     0.57866   0.56871   0.42119   0.00000  Uiso   1.00
O776   O     0.50000   0.56011   0.46042   0.00000  Uiso   1.00
O777   O     0.62896   0.54363   0.37359   0.00000  Uiso   1.00
O778   O     0.50000   0.43988   0.46039   0.00000  Uiso   1.00
O779   O     0.50000   0.56012   0.53961   0.00000  Uiso   1.00
O780   O     0.42495   0.50000   0.53046   0.00000  Uiso   1.00
O781   O     0.57505   0.50000   0.46954   0.00000  Uiso   1.00
O782   O     0.42494   0.49999   0.45127   0.00000  Uiso   1.00
O783   O     0.57506   0.50001   0.54873   0.00000  Uiso   1.00
O784   O     0.53408   0.63780   0.38551   0.00000  Uiso   1.00
C785   C     0.83718   0.42106   0.50120   0.00000  Uiso   1.00
C786   C     0.82706   0.35228   0.54186   0.00000  Uiso   1.00
C787   C     0.82536   0.62374   0.49667   0.00000  Uiso   1.00
C788   C     0.84131   0.37626   0.50333   0.00000  Uiso   1.00
C789   C     0.80140   0.47225   0.35475   0.00000  Uiso   1.00
C790   C     0.86526   0.52775   0.64525   0.00000  Uiso   1.00
C791   C     0.79862   0.47439   0.63859   0.00000  Uiso   1.00
C792   C     0.86805   0.52561   0.36141   0.00000  Uiso   1.00
C793   C     0.83374   0.63060   0.41037   0.00000  Uiso   1.00
C794   C     0.83293   0.36940   0.58963   0.00000  Uiso   1.00
C795   C     0.77689   0.43438   0.37464   0.00000  Uiso   1.00
C796   C     0.82949   0.57894   0.49880   0.00000  Uiso   1.00
C797   C     0.88978   0.56562   0.62536   0.00000  Uiso   1.00
C798   C     0.75205   0.45302   0.61173   0.00000  Uiso   1.00
C799   C     0.91462   0.54698   0.38827   0.00000  Uiso   1.00
C800   C     0.73480   0.49931   0.48825   0.00000  Uiso   1.00
C801   C     0.93187   0.50069   0.51175   0.00000  Uiso   1.00
C802   C     0.67956   0.49388   0.48306   0.00000  Uiso   1.00
C803   C     0.98711   0.50612   0.51694   0.00000  Uiso   1.00
C804   C     0.85245   0.35665   0.46362   0.00000  Uiso   1.00
C805   C     0.81422   0.64335   0.53638   0.00000  Uiso   1.00
C806   C     0.83960   0.64772   0.45814   0.00000  Uiso   1.00
Cl807  Cl    0.98312   0.46453   0.43458   0.00000  Uiso   1.00
Cl808  Cl    0.68354   0.53547   0.56542   0.00000  Uiso   1.00
Cl809  Cl    0.88809   0.38411   0.42309   0.00000  Uiso   1.00
Cl810  Cl    0.77858   0.61589   0.57691   0.00000  Uiso   1.00
Cu811  Cu    0.83333   0.50001   0.54689   0.00000  Uiso   1.00
Cu812  Cu    0.83333   0.49999   0.45311   0.00000  Uiso   1.00
H813   H     0.78863   0.59732   0.36037   0.00000  Uiso   1.00
H814   H     0.87804   0.40268   0.63963   0.00000  Uiso   1.00
H815   H     0.72499   0.40751   0.41310   0.00000  Uiso   1.00
H816   H     0.94167   0.59249   0.58690   0.00000  Uiso   1.00
H817   H     0.67532   0.44024   0.60628   0.00000  Uiso   1.00
H818   H     0.99135   0.55976   0.39372   0.00000  Uiso   1.00
N819   N     0.83335   0.50001   0.61736   0.00000  Uiso   1.00
N820   N     0.83332   0.49999   0.38264   0.00000  Uiso   1.00
O821   O     0.83333   0.43989   0.53958   0.00000  Uiso   1.00
O822   O     0.78840   0.60723   0.39325   0.00000  Uiso   1.00
O823   O     0.79925   0.36220   0.61449   0.00000  Uiso   1.00
O824   O     0.87827   0.39277   0.60675   0.00000  Uiso   1.00
O825   O     0.78890   0.40102   0.36404   0.00000  Uiso   1.00
O826   O     0.73827   0.43581   0.40236   0.00000  Uiso   1.00
O827   O     0.87776   0.59898   0.63596   0.00000  Uiso   1.00
O828   O     0.92840   0.56419   0.59764   0.00000  Uiso   1.00
O829   O     0.75467   0.43129   0.57881   0.00000  Uiso   1.00
O830   O     0.70437   0.45637   0.62641   0.00000  Uiso   1.00
O831   O     0.91200   0.56871   0.42119   0.00000  Uiso   1.00
O832   O     0.83334   0.56011   0.46042   0.00000  Uiso   1.00
O833   O     0.96229   0.54363   0.37359   0.00000  Uiso   1.00
O834   O     0.83333   0.43988   0.46039   0.00000  Uiso   1.00
O835   O     0.83334   0.56012   0.53961   0.00000  Uiso   1.00
O836   O     0.75828   0.50000   0.53046   0.00000  Uiso   1.00
O837   O     0.90839   0.50000   0.46954   0.00000  Uiso   1.00
O838   O     0.75828   0.49999   0.45127   0.00000  Uiso   1.00
O839   O     0.90839   0.50001   0.54873   0.00000  Uiso   1.00
O840   O     0.86742   0.63780   0.38551   0.00000  Uiso   1.00
C841   C     0.17052   0.75440   0.50120   0.00000  Uiso   1.00
C842   C     0.16040   0.68561   0.54186   0.00000  Uiso   1.00
C843   C     0.15869   0.95708   0.49667   0.00000  Uiso   1.00
C844   C     0.17464   0.70959   0.50333   0.00000  Uiso   1.00
C845   C     0.13474   0.80559   0.35475   0.00000  Uiso   1.00
C846   C     0.19860   0.86108   0.64525   0.00000  Uiso   1.00
C847   C     0.13195   0.80772   0.63859   0.00000  Uiso   1.00
C848   C     0.20138   0.85895   0.36141   0.00000  Uiso   1.00
C849   C     0.16707   0.96393   0.41037   0.00000  Uiso   1.00
C850   C     0.16626   0.70273   0.58963   0.00000  Uiso   1.00
C851   C     0.11022   0.76771   0.37464   0.00000  Uiso   1.00
C852   C     0.16282   0.91227   0.49880   0.00000  Uiso   1.00
C853   C     0.22311   0.89896   0.62536   0.00000  Uiso   1.00
C854   C     0.08538   0.78636   0.61173   0.00000  Uiso   1.00
C855   C     0.24795   0.88031   0.38827   0.00000  Uiso   1.00
C856   C     0.06813   0.83264   0.48825   0.00000  Uiso   1.00
C857   C     0.26520   0.83403   0.51175   0.00000  Uiso   1.00
C858   C     0.01289   0.82721   0.48306   0.00000  Uiso   1.00
C859   C     0.32044   0.83945   0.51694   0.00000  Uiso   1.00
C860   C     0.18578   0.68999   0.46362   0.00000  Uiso   1.00
C861   C     0.14755   0.97668   0.53638   0.00000  Uiso   1.00
C862   C     0.17294   0.98105   0.45814   0.00000  Uiso   1.00
Cl863  Cl    0.31646   0.79786   0.43458   0.00000  Uiso   1.00
Cl864  Cl    0.01688   0.86881   0.56542   0.00000  Uiso   1.00
Cl865  Cl    0.22142   0.71745   0.42309   0.00000  Uiso   1.00
Cl866  Cl    0.11191   0.94922   0.57691   0.00000  Uiso   1.00
Cu867  Cu    0.16667   0.83334   0.54689   0.00000  Uiso   1.00
Cu868  Cu    0.16667   0.83333   0.45311   0.00000  Uiso   1.00
H869   H     0.12196   0.93065   0.36037   0.00000  Uiso   1.00
H870   H     0.21137   0.73602   0.63963   0.00000  Uiso   1.00
H871   H     0.05833   0.74084   0.41310   0.00000  Uiso   1.00
H872   H     0.27501   0.92583   0.58690   0.00000  Uiso   1.00
H873   H     0.00865   0.77357   0.60628   0.00000  Uiso   1.00
H874   H     0.32468   0.89310   0.39372   0.00000  Uiso   1.00
N875   N     0.16668   0.83334   0.61736   0.00000  Uiso   1.00
N876   N     0.16665   0.83332   0.38264   0.00000  Uiso   1.00
O877   O     0.16666   0.77322   0.53958   0.00000  Uiso   1.00
O878   O     0.12173   0.94056   0.39325   0.00000  Uiso   1.00
O879   O     0.13258   0.69553   0.61449   0.00000  Uiso   1.00
O880   O     0.21160   0.72610   0.60675   0.00000  Uiso   1.00
O881   O     0.12224   0.73436   0.36404   0.00000  Uiso   1.00
O882   O     0.07160   0.76914   0.40236   0.00000  Uiso   1.00
O883   O     0.21110   0.93231   0.63596   0.00000  Uiso   1.00
O884   O     0.26173   0.89752   0.59764   0.00000  Uiso   1.00
O885   O     0.08801   0.76463   0.57881   0.00000  Uiso   1.00
O886   O     0.03771   0.78971   0.62641   0.00000  Uiso   1.00
O887   O     0.24533   0.90204   0.42119   0.00000  Uiso   1.00
O888   O     0.16667   0.89345   0.46042   0.00000  Uiso   1.00
O889   O     0.29563   0.87696   0.37359   0.00000  Uiso   1.00
O890   O     0.16666   0.77321   0.46039   0.00000  Uiso   1.00
O891   O     0.16667   0.89346   0.53961   0.00000  Uiso   1.00
O892   O     0.09161   0.83334   0.53046   0.00000  Uiso   1.00
O893   O     0.24172   0.83333   0.46954   0.00000  Uiso   1.00
O894   O     0.09161   0.83333   0.45127   0.00000  Uiso   1.00
O895   O     0.24172   0.83334   0.54873   0.00000  Uiso   1.00
O896   O     0.20075   0.97113   0.38551   0.00000  Uiso   1.00
C897   C     0.50385   0.75440   0.50120   0.00000  Uiso   1.00
C898   C     0.49373   0.68561   0.54186   0.00000  Uiso   1.00
C899   C     0.49203   0.95708   0.49667   0.00000  Uiso   1.00
C900   C     0.50797   0.70959   0.50333   0.00000  Uiso   1.00
C901   C     0.46807   0.80559   0.35475   0.00000  Uiso   1.00
C902   C     0.53193   0.86108   0.64525   0.00000  Uiso   1.00
C903   C     0.46529   0.80772   0.63859   0.00000  Uiso   1.00
C904   C     0.53471   0.85895   0.36141   0.00000  Uiso   1.00
C905   C     0.50041   0.96393   0.41037   0.00000  Uiso   1.00
C906   C     0.49959   0.70273   0.58963   0.00000  Uiso   1.00
C907   C     0.44356   0.76771   0.37464   0.00000  Uiso   1.00
C908   C     0.49615   0.91227   0.49880   0.00000  Uiso   1.00
C909   C     0.55644   0.89896   0.62536   0.00000  Uiso   1.00
C910   C     0.41871   0.78636   0.61173   0.00000  Uiso   1.00
C911   C     0.58129   0.88031   0.38827   0.00000  Uiso   1.00
C912   C     0.40147   0.83264   0.48825   0.00000  Uiso   1.00
C913   C     0.59853   0.83403   0.51175   0.00000  Uiso   1.00
C914   C     0.34623   0.82721   0.48306   0.00000  Uiso   1.00
C915   C     0.65377   0.83945   0.51694   0.00000  Uiso   1.00
C916   C     0.51912   0.68999   0.46362   0.00000  Uiso   1.00
C917   C     0.48088   0.97668   0.53638   0.00000  Uiso   1.00
C918   C     0.50627   0.98105   0.45814   0.00000  Uiso   1.00
Cl919  Cl    0.64979   0.79786   0.43458   0.00000  Uiso   1.00
Cl920  Cl    0.35021   0.86881   0.56542   0.00000  Uiso   1.00
Cl921  Cl    0.55476   0.71745   0.42309   0.00000  Uiso   1.00
Cl922  Cl    0.44524   0.94922   0.57691   0.00000  Uiso   1.00
Cu923  Cu    0.50000   0.83334   0.54689   0.00000  Uiso   1.00
Cu924  Cu    0.50000   0.83333   0.45311   0.00000  Uiso   1.00
H925   H     0.45530   0.93065   0.36037   0.00000  Uiso   1.00
H926   H     0.54470   0.73602   0.63963   0.00000  Uiso   1.00
H927   H     0.39166   0.74084   0.41310   0.00000  Uiso   1.00
H928   H     0.60834   0.92583   0.58690   0.00000  Uiso   1.00
H929   H     0.34198   0.77357   0.60628   0.00000  Uiso   1.00
H930   H     0.65802   0.89310   0.39372   0.00000  Uiso   1.00
N931   N     0.50001   0.83334   0.61736   0.00000  Uiso   1.00
N932   N     0.49999   0.83332   0.38264   0.00000  Uiso   1.00
O933   O     0.50000   0.77322   0.53958   0.00000  Uiso   1.00
O934   O     0.45506   0.94056   0.39325   0.00000  Uiso   1.00
O935   O     0.46592   0.69553   0.61449   0.00000  Uiso   1.00
O936   O     0.54494   0.72610   0.60675   0.00000  Uiso   1.00
O937   O     0.45557   0.73436   0.36404   0.00000  Uiso   1.00
O938   O     0.40493   0.76914   0.40236   0.00000  Uiso   1.00
O939   O     0.54443   0.93231   0.63596   0.00000  Uiso   1.00
O940   O     0.59507   0.89752   0.59764   0.00000  Uiso   1.00
O941   O     0.42134   0.76463   0.57881   0.00000  Uiso   1.00
O942   O     0.37104   0.78971   0.62641   0.00000  Uiso   1.00
O943   O     0.57866   0.90204   0.42119   0.00000  Uiso   1.00
O944   O     0.50000   0.89345   0.46042   0.00000  Uiso   1.00
O945   O     0.62896   0.87696   0.37359   0.00000  Uiso   1.00
O946   O     0.50000   0.77321   0.46039   0.00000  Uiso   1.00
O947   O     0.50000   0.89346   0.53961   0.00000  Uiso   1.00
O948   O     0.42495   0.83334   0.53046   0.00000  Uiso   1.00
O949   O     0.57505   0.83333   0.46954   0.00000  Uiso   1.00
O950   O     0.42494   0.83333   0.45127   0.00000  Uiso   1.00
O951   O     0.57506   0.83334   0.54873   0.00000  Uiso   1.00
O952   O     0.53408   0.97113   0.38551   0.00000  Uiso   1.00
C953   C     0.83718   0.75440   0.50120   0.00000  Uiso   1.00
C954   C     0.82706   0.68561   0.54186   0.00000  Uiso   1.00
C955   C     0.82536   0.95708   0.49667   0.00000  Uiso   1.00
C956   C     0.84131   0.70959   0.50333   0.00000  Uiso   1.00
C957   C     0.80140   0.80559   0.35475   0.00000  Uiso   1.00
C958   C     0.86526   0.86108   0.64525   0.00000  Uiso   1.00
C959   C     0.79862   0.80772   0.63859   0.00000  Uiso   1.00
C960   C     0.86805   0.85895   0.36141   0.00000  Uiso   1.00
C961   C     0.83374   0.96393   0.41037   0.00000  Uiso   1.00
C962   C     0.83293   0.70273   0.58963   0.00000  Uiso   1.00
C963   C     0.77689   0.76771   0.37464   0.00000  Uiso   1.00
C964   C     0.82949   0.91227   0.49880   0.00000  Uiso   1.00
C965   C     0.88978   0.89896   0.62536   0.00000  Uiso   1.00
C966   C     0.75205   0.78636   0.61173   0.00000  Uiso   1.00
C967   C     0.91462   0.88031   0.38827   0.00000  Uiso   1.00
C968   C     0.73480   0.83264   0.48825   0.00000  Uiso   1.00
C969   C     0.93187   0.83403   0.51175   0.00000  Uiso   1.00
C970   C     0.67956   0.82721   0.48306   0.00000  Uiso   1.00
C971   C     0.98711   0.83945   0.51694   0.00000  Uiso   1.00
C972   C     0.85245   0.68999   0.46362   0.00000  Uiso   1.00
C973   C     0.81422   0.97668   0.53638   0.00000  Uiso   1.00
C974   C     0.83960   0.98105   0.45814   0.00000  Uiso   1.00
Cl975  Cl    0.98312   0.79786   0.43458   0.00000  Uiso   1.00
Cl976  Cl    0.68354   0.86881   0.56542   0.00000  Uiso   1.00
Cl977  Cl    0.88809   0.71745   0.42309   0.00000  Uiso   1.00
Cl978  Cl    0.77858   0.94922   0.57691   0.00000  Uiso   1.00
Cu979  Cu    0.83333   0.83334   0.54689   0.00000  Uiso   1.00
Cu980  Cu    0.83333   0.83333   0.45311   0.00000  Uiso   1.00
H981   H     0.78863   0.93065   0.36037   0.00000  Uiso   1.00
H982   H     0.87804   0.73602   0.63963   0.00000  Uiso   1.00
H983   H     0.72499   0.74084   0.41310   0.00000  Uiso   1.00
H984   H     0.94167   0.92583   0.58690   0.00000  Uiso   1.00
H985   H     0.67532   0.77357   0.60628   0.00000  Uiso   1.00
H986   H     0.99135   0.89310   0.39372   0.00000  Uiso   1.00
N987   N     0.83335   0.83334   0.61736   0.00000  Uiso   1.00
N988   N     0.83332   0.83332   0.38264   0.00000  Uiso   1.00
O989   O     0.83333   0.77322   0.53958   0.00000  Uiso   1.00
O990   O     0.78840   0.94056   0.39325   0.00000  Uiso   1.00
O991   O     0.79925   0.69553   0.61449   0.00000  Uiso   1.00
O992   O     0.87827   0.72610   0.60675   0.00000  Uiso   1.00
O993   O     0.78890   0.73436   0.36404   0.00000  Uiso   1.00
O994   O     0.73827   0.76914   0.40236   0.00000  Uiso   1.00
O995   O     0.87776   0.93231   0.63596   0.00000  Uiso   1.00
O996   O     0.92840   0.89752   0.59764   0.00000  Uiso   1.00
O997   O     0.75467   0.76463   0.57881   0.00000  Uiso   1.00
O998   O     0.70437   0.78971   0.62641   0.00000  Uiso   1.00
O999   O     0.91200   0.90204   0.42119   0.00000  Uiso   1.00
O1000  O     0.83334   0.89345   0.46042   0.00000  Uiso   1.00
O1001  O     0.96229   0.87696   0.37359   0.00000  Uiso   1.00
O1002  O     0.83333   0.77321   0.46039   0.00000  Uiso   1.00
O1003  O     0.83334   0.89346   0.53961   0.00000  Uiso   1.00
O1004  O     0.75828   0.83334   0.53046   0.00000  Uiso   1.00
O1005  O     0.90839   0.83333   0.46954   0.00000  Uiso   1.00
O1006  O     0.75828   0.83333   0.45127   0.00000  Uiso   1.00
O1007  O     0.90839   0.83334   0.54873   0.00000  Uiso   1.00
O1008  O     0.86742   0.97113   0.38551   0.00000  Uiso   1.00
C1009  C     0.17052   0.08773   0.83453   0.00000  Uiso   1.00
C1010  C     0.16040   0.01895   0.87520   0.00000  Uiso   1.00
C1011  C     0.15869   0.29041   0.83000   0.00000  Uiso   1.00
C1012  C     0.17464   0.04292   0.83666   0.00000  Uiso   1.00
C1013  C     0.13474   0.13892   0.68808   0.00000  Uiso   1.00
C1014  C     0.19860   0.19441   0.97858   0.00000  Uiso   1.00
C1015  C     0.13195   0.14105   0.97192   0.00000  Uiso   1.00
C1016  C     0.20138   0.19228   0.69474   0.00000  Uiso   1.00
C1017  C     0.16707   0.29727   0.74370   0.00000  Uiso   1.00
C1018  C     0.16626   0.03607   0.92297   0.00000  Uiso   1.00
C1019  C     0.11022   0.10104   0.70797   0.00000  Uiso   1.00
C1020  C     0.16282   0.24560   0.83213   0.00000  Uiso   1.00
C1021  C     0.22311   0.23229   0.95869   0.00000  Uiso   1.00
C1022  C     0.08538   0.11969   0.94507   0.00000  Uiso   1.00
C1023  C     0.24795   0.21364   0.72160   0.00000  Uiso   1.00
C1024  C     0.06813   0.16597   0.82158   0.00000  Uiso   1.00
C1025  C     0.26520   0.16736   0.84509   0.00000  Uiso   1.00
C1026  C     0.01289   0.16055   0.81640   0.00000  Uiso   1.00
C1027  C     0.32044   0.17279   0.85027   0.00000  Uiso   1.00
C1028  C     0.18578   0.02332   0.79695   0.00000  Uiso   1.00
C1029  C     0.14755   0.31001   0.86971   0.00000  Uiso   1.00
C1030  C     0.17294   0.31439   0.79147   0.00000  Uiso   1.00
Cl1031 Cl    0.31646   0.13119   0.76792   0.00000  Uiso   1.00
Cl1032 Cl    0.01688   0.20214   0.89875   0.00000  Uiso   1.00
Cl1033 Cl    0.22142   0.05078   0.75642   0.00000  Uiso   1.00
Cl1034 Cl    0.11191   0.28255   0.91025   0.00000  Uiso   1.00
Cu1035 Cu    0.16667   0.16667   0.88022   0.00000  Uiso   1.00
Cu1036 Cu    0.16667   0.16666   0.78645   0.00000  Uiso   1.00
H1037  H     0.12196   0.26398   0.69371   0.00000  Uiso   1.00
H1038  H     0.21137   0.06935   0.97296   0.00000  Uiso   1.00
H1039  H     0.05833   0.07417   0.74643   0.00000  Uiso   1.00
H1040  H     0.27501   0.25916   0.92024   0.00000  Uiso   1.00
H1041  H     0.00865   0.10690   0.93961   0.00000  Uiso   1.00
H1042  H     0.32468   0.22643   0.72705   0.00000  Uiso   1.00
N1043  N     0.16668   0.16668   0.95069   0.00000  Uiso   1.00
N1044  N     0.16665   0.16666   0.71597   0.00000  Uiso   1.00
O1045  O     0.16666   0.10655   0.87291   0.00000  Uiso   1.00
O1046  O     0.12173   0.27390   0.72658   0.00000  Uiso   1.00
O1047  O     0.13258   0.02887   0.94782   0.00000  Uiso   1.00
O1048  O     0.21160   0.05944   0.94009   0.00000  Uiso   1.00
O1049  O     0.12224   0.06769   0.69738   0.00000  Uiso   1.00
O1050  O     0.07160   0.10248   0.73570   0.00000  Uiso   1.00
O1051  O     0.21110   0.26564   0.96929   0.00000  Uiso   1.00
O1052  O     0.26173   0.23086   0.93097   0.00000  Uiso   1.00
O1053  O     0.08801   0.09796   0.91214   0.00000  Uiso   1.00
O1054  O     0.03771   0.12304   0.95975   0.00000  Uiso   1.00
O1055  O     0.24533   0.23537   0.75453   0.00000  Uiso   1.00
O1056  O     0.16667   0.22678   0.79375   0.00000  Uiso   1.00
O1057  O     0.29563   0.21029   0.70692   0.00000  Uiso   1.00
O1058  O     0.16666   0.10654   0.79372   0.00000  Uiso   1.00
O1059  O     0.16667   0.22679   0.87294   0.00000  Uiso   1.00
O1060  O     0.09161   0.16667   0.86379   0.00000  Uiso   1.00
O1061  O     0.24172   0.16666   0.80288   0.00000  Uiso   1.00
O1062  O     0.09161   0.16666   0.78460   0.00000  Uiso   1.00
O1063  O     0.24172   0.16667   0.88207   0.00000  Uiso   1.00
O1064  O     0.20075   0.30447   0.71885   0.00000  Uiso   1.00
C1065  C     0.50385   0.08773   0.83453   0.00000  Uiso   1.00
C1066  C     0.49373   0.01895   0.87520   0.00000  Uiso   1.00
C1067  C     0.49203   0.29041   0.83000   0.00000  Uiso   1.00
C1068  C     0.50797   0.04292   0.83666   0.00000  Uiso   1.00
C1069  C     0.46807   0.13892   0.68808   0.00000  Uiso   1.00
C1070  C     0.53193   0.19441   0.97858   0.00000  Uiso   1.00
C1071  C     0.46529   0.14105   0.97192   0.00000  Uiso   1.00
C1072  C     0.53471   0.19228   0.69474   0.00000  Uiso   1.00
C1073  C     0.50041   0.29727   0.74370   0.00000  Uiso   1.00
C1074  C     0.49959   0.03607   0.92297   0.00000  Uiso   1.00
C1075  C     0.44356   0.10104   0.70797   0.00000  Uiso   1.00
C1076  C     0.49615   0.24560   0.83213   0.00000  Uiso   1.00
C1077  C     0.55644   0.23229   0.95869   0.00000  Uiso   1.00
C1078  C     0.41871   0.11969   0.94507   0.00000  Uiso   1.00
C1079  C     0.58129   0.21364   0.72160   0.00000  Uiso   1.00
C1080  C     0.40147   0.16597   0.82158   0.00000  Uiso   1.00
C1081  C     0.59853   0.16736   0.84509   0.00000  Uiso   1.00
C1082  C     0.34623   0.16055   0.81640   0.00000  Uiso   1.00
C1083  C     0.65377   0.17279   0.85027   0.00000  Uiso   1.00
C1084  C     0.51912   0.02332   0.79695   0.00000  Uiso   1.00
C1085  C     0.48088   0.31001   0.86971   0.00000  Uiso   1.00
C1086  C     0.50627   0.31439   0.79147   0.00000  Uiso   1.00
Cl1087 Cl    0.64979   0.13119   0.76792   0.00000  Uiso   1.00
Cl1088 Cl    0.35021   0.20214   0.89875   0.00000  Uiso   1.00
Cl1089 Cl    0.55476   0.05078   0.75642   0.00000  Uiso   1.00
Cl1090 Cl    0.44524   0.28255   0.91025   0.00000  Uiso   1.00
Cu1091 Cu    0.50000   0.16667   0.88022   0.00000  Uiso   1.00
Cu1092 Cu    0.50000   0.16666   0.78645   0.00000  Uiso   1.00
H1093  H     0.45530   0.26398   0.69371   0.00000  Uiso   1.00
H1094  H     0.54470   0.06935   0.97296   0.00000  Uiso   1.00
H1095  H     0.39166   0.07417   0.74643   0.00000  Uiso   1.00
H1096  H     0.60834   0.25916   0.92024   0.00000  Uiso   1.00
H1097  H     0.34198   0.10690   0.93961   0.00000  Uiso   1.00
H1098  H     0.65802   0.22643   0.72705   0.00000  Uiso   1.00
N1099  N     0.50001   0.16668   0.95069   0.00000  Uiso   1.00
N1100  N     0.49999   0.16666   0.71597   0.00000  Uiso   1.00
O1101  O     0.50000   0.10655   0.87291   0.00000  Uiso   1.00
O1102  O     0.45506   0.27390   0.72658   0.00000  Uiso   1.00
O1103  O     0.46592   0.02887   0.94782   0.00000  Uiso   1.00
O1104  O     0.54494   0.05944   0.94009   0.00000  Uiso   1.00
O1105  O     0.45557   0.06769   0.69738   0.00000  Uiso   1.00
O1106  O     0.40493   0.10248   0.73570   0.00000  Uiso   1.00
O1107  O     0.54443   0.26564   0.96929   0.00000  Uiso   1.00
O1108  O     0.59507   0.23086   0.93097   0.00000  Uiso   1.00
O1109  O     0.42134   0.09796   0.91214   0.00000  Uiso   1.00
O1110  O     0.37104   0.12304   0.95975   0.00000  Uiso   1.00
O1111  O     0.57866   0.23537   0.75453   0.00000  Uiso   1.00
O1112  O     0.50000   0.22678   0.79375   0.00000  Uiso   1.00
O1113  O     0.62896   0.21029   0.70692   0.00000  Uiso   1.00
O1114  O     0.50000   0.10654   0.79372   0.00000  Uiso   1.00
O1115  O     0.50000   0.22679   0.87294   0.00000  Uiso   1.00
O1116  O     0.42495   0.16667   0.86379   0.00000  Uiso   1.00
O1117  O     0.57505   0.16666   0.80288   0.00000  Uiso   1.00
O1118  O     0.42494   0.16666   0.78460   0.00000  Uiso   1.00
O1119  O     0.57506   0.16667   0.88207   0.00000  Uiso   1.00
O1120  O     0.53408   0.30447   0.71885   0.00000  Uiso   1.00
C1121  C     0.83718   0.08773   0.83453   0.00000  Uiso   1.00
C1122  C     0.82706   0.01895   0.87520   0.00000  Uiso   1.00
C1123  C     0.82536   0.29041   0.83000   0.00000  Uiso   1.00
C1124  C     0.84131   0.04292   0.83666   0.00000  Uiso   1.00
C1125  C     0.80140   0.13892   0.68808   0.00000  Uiso   1.00
C1126  C     0.86526   0.19441   0.97858   0.00000  Uiso   1.00
C1127  C     0.79862   0.14105   0.97192   0.00000  Uiso   1.00
C1128  C     0.86805   0.19228   0.69474   0.00000  Uiso   1.00
C1129  C     0.83374   0.29727   0.74370   0.00000  Uiso   1.00
C1130  C     0.83293   0.03607   0.92297   0.00000  Uiso   1.00
C1131  C     0.77689   0.10104   0.70797   0.00000  Uiso   1.00
C1132  C     0.82949   0.24560   0.83213   0.00000  Uiso   1.00
C1133  C     0.88978   0.23229   0.95869   0.00000  Uiso   1.00
C1134  C     0.75205   0.11969   0.94507   0.00000  Uiso   1.00
C1135  C     0.91462   0.21364   0.72160   0.00000  Uiso   1.00
C1136  C     0.73480   0.16597   0.82158   0.00000  Uiso   1.00
C1137  C     0.93187   0.16736   0.84509   0.00000  Uiso   1.00
C1138  C     0.67956   0.16055   0.81640   0.00000  Uiso   1.00
C1139  C     0.98711   0.17279   0.85027   0.00000  Uiso   1.00
C1140  C     0.85245   0.02332   0.79695   0.00000  Uiso   1.00
C1141  C     0.81422   0.31001   0.86971   0.00000  Uiso   1.00
C1142  C     0.83960   0.31439   0.79147   0.00000  Uiso   1.00
Cl1143 Cl    0.98312   0.13119   0.76792   0.00000  Uiso   1.00
Cl1144 Cl    0.68354   0.20214   0.89875   0.00000  Uiso   1.00
Cl1145 Cl    0.88809   0.05078   0.75642   0.00000  Uiso   1.00
Cl1146 Cl    0.77858   0.28255   0.91025   0.00000  Uiso   1.00
Cu1147 Cu    0.83333   0.16667   0.88022   0.00000  Uiso   1.00
Cu1148 Cu    0.83333   0.16666   0.78645   0.00000  Uiso   1.00
H1149  H     0.78863   0.26398   0.69371   0.00000  Uiso   1.00
H1150  H     0.87804   0.06935   0.97296   0.00000  Uiso   1.00
H1151  H     0.72499   0.07417   0.74643   0.00000  Uiso   1.00
H1152  H     0.94167   0.25916   0.92024   0.00000  Uiso   1.00
H1153  H     0.67532   0.10690   0.93961   0.00000  Uiso   1.00
H1154  H     0.99135   0.22643   0.72705   0.00000  Uiso   1.00
N1155  N     0.83335   0.16668   0.95069   0.00000  Uiso   1.00
N1156  N     0.83332   0.16666   0.71597   0.00000  Uiso   1.00
O1157  O     0.83333   0.10655   0.87291   0.00000  Uiso   1.00
O1158  O     0.78840   0.27390   0.72658   0.00000  Uiso   1.00
O1159  O     0.79925   0.02887   0.94782   0.00000  Uiso   1.00
O1160  O     0.87827   0.05944   0.94009   0.00000  Uiso   1.00
O1161  O     0.78890   0.06769   0.69738   0.00000  Uiso   1.00
O1162  O     0.73827   0.10248   0.73570   0.00000  Uiso   1.00
O1163  O     0.87776   0.26564   0.96929   0.00000  Uiso   1.00
O1164  O     0.92840   0.23086   0.93097   0.00000  Uiso   1.00
O1165  O     0.75467   0.09796   0.91214   0.00000  Uiso   1.00
O1166  O     0.70437   0.12304   0.95975   0.00000  Uiso   1.00
O1167  O     0.91200   0.23537   0.75453   0.00000  Uiso   1.00
O1168  O     0.83334   0.22678   0.79375   0.00000  Uiso   1.00
O1169  O     0.96229   0.21029   0.70692   0.00000  Uiso   1.00
O1170  O     0.83333   0.10654   0.79372   0.00000  Uiso   1.00
O1171  O     0.83334   0.22679   0.87294   0.00000  Uiso   1.00
O1172  O     0.75828   0.16667   0.86379   0.00000  Uiso   1.00
O1173  O     0.90839   0.16666   0.80288   0.00000  Uiso   1.00
O1174  O     0.75828   0.16666   0.78460   0.00000  Uiso   1.00
O1175  O     0.90839   0.16667   0.88207   0.00000  Uiso   1.00
O1176  O     0.86742   0.30447   0.71885   0.00000  Uiso   1.00
C1177  C     0.17052   0.42106   0.83453   0.00000  Uiso   1.00
C1178  C     0.16040   0.35228   0.87520   0.00000  Uiso   1.00
C1179  C     0.15869   0.62374   0.83000   0.00000  Uiso   1.00
C1180  C     0.17464   0.37626   0.83666   0.00000  Uiso   1.00
C1181  C     0.13474   0.47225   0.68808   0.00000  Uiso   1.00
C1182  C     0.19860   0.52775   0.97858   0.00000  Uiso   1.00
C1183  C     0.13195   0.47439   0.97192   0.00000  Uiso   1.00
C1184  C     0.20138   0.52561   0.69474   0.00000  Uiso   1.00
C1185  C     0.16707   0.63060   0.74370   0.00000  Uiso   1.00
C1186  C     0.16626   0.36940   0.92297   0.00000  Uiso   1.00
C1187  C     0.11022   0.43438   0.70797   0.00000  Uiso   1.00
C1188  C     0.16282   0.57894   0.83213   0.00000  Uiso   1.00
C1189  C     0.22311   0.56562   0.95869   0.00000  Uiso   1.00
C1190  C     0.08538   0.45302   0.94507   0.00000  Uiso   1.00
C1191  C     0.24795   0.54698   0.72160   0.00000  Uiso   1.00
C1192  C     0.06813   0.49931   0.82158   0.00000  Uiso   1.00
C1193  C     0.26520   0.50069   0.84509   0.00000  Uiso   1.00
C1194  C     0.01289   0.49388   0.81640   0.00000  Uiso   1.00
C1195  C     0.32044   0.50612   0.85027   0.00000  Uiso   1.00
C1196  C     0.18578   0.35665   0.79695   0.00000  Uiso   1.00
C1197  C     0.14755   0.64335   0.86971   0.00000  Uiso   1.00
C1198  C     0.17294   0.64772   0.79147   0.00000  Uiso   1.00
Cl1199 Cl    0.31646   0.46453   0.76792   0.00000  Uiso   1.00
Cl1200 Cl    0.01688   0.53547   0.89875   0.00000  Uiso   1.00
Cl1201 Cl    0.22142   0.38411   0.75642   0.00000  Uiso   1.00
Cl1202 Cl    0.11191   0.61589   0.91025   0.00000  Uiso   1.00
Cu1203 Cu    0.16667   0.50001   0.88022   0.00000  Uiso   1.00
Cu1204 Cu    0.16667   0.49999   0.78645   0.00000  Uiso   1.00
H1205  H     0.12196   0.59732   0.69371   0.00000  Uiso   1.00
H1206  H     0.21137   0.40268   0.97296   0.00000  Uiso   1.00
H1207  H     0.05833   0.40751   0.74643   0.00000  Uiso   1.00
H1208  H     0.27501   0.59249   0.92024   0.00000  Uiso   1.00
H1209  H     0.00865   0.44024   0.93961   0.00000  Uiso   1.00
H1210  H     0.32468   0.55976   0.72705   0.00000  Uiso   1.00
N1211  N     0.16668   0.50001   0.95069   0.00000  Uiso   1.00
N1212  N     0.16665   0.49999   0.71597   0.00000  Uiso   1.00
O1213  O     0.16666   0.43989   0.87291   0.00000  Uiso   1.00
O1214  O     0.12173   0.60723   0.72658   0.00000  Uiso   1.00
O1215  O     0.13258   0.36220   0.94782   0.00000  Uiso   1.00
O1216  O     0.21160   0.39277   0.94009   0.00000  Uiso   1.00
O1217  O     0.12224   0.40102   0.69738   0.00000  Uiso   1.00
O1218  O     0.07160   0.43581   0.73570   0.00000  Uiso   1.00
O1219  O     0.21110   0.59898   0.96929   0.00000  Uiso   1.00
O1220  O     0.26173   0.56419   0.93097   0.00000  Uiso   1.00
O1221  O     0.08801   0.43129   0.91214   0.00000  Uiso   1.00
O1222  O     0.03771   0.45637   0.95975   0.00000  Uiso   1.00
O1223  O     0.24533   0.56871   0.75453   0.00000  Uiso   1.00
O1224  O     0.16667   0.56011   0.79375   0.00000  Uiso   1.00
O1225  O     0.29563   0.54363   0.70692   0.00000  Uiso   1.00
O1226  O     0.16666   0.43988   0.79372   0.00000  Uiso   1.00
O1227  O     0.16667   0.56012   0.87294   0.00000  Uiso   1.00
O1228  O     0.09161   0.50000   0.86379   0.00000  Uiso   1.00
O1229  O     0.24172   0.50000   0.80288   0.00000  Uiso   1.00
O1230  O     0.09161   0.49999   0.78460   0.00000  Uiso   1.00
O1231  O     0.24172   0.50001   0.88207   0.00000  Uiso   1.00
O1232  O     0.20075   0.63780   0.71885   0.00000  Uiso   1.00
C1233  C     0.50385   0.42106   0.83453   0.00000  Uiso   1.00
C1234  C     0.49373   0.35228   0.87520   0.00000  Uiso   1.00
C1235  C     0.49203   0.62374   0.83000   0.00000  Uiso   1.00
C1236  C     0.50797   0.37626   0.83666   0.00000  Uiso   1.00
C1237  C     0.46807   0.47225   0.68808   0.00000  Uiso   1.00
C1238  C     0.53193   0.52775   0.97858   0.00000  Uiso   1.00
C1239  C     0.46529   0.47439   0.97192   0.00000  Uiso   1.00
C1240  C     0.53471   0.52561   0.69474   0.00000  Uiso   1.00
C1241  C     0.50041   0.63060   0.74370   0.00000  Uiso   1.00
C1242  C     0.49959   0.36940   0.92297   0.00000  Uiso   1.00
C1243  C     0.44356   0.43438   0.70797   0.00000  Uiso   1.00
C1244  C     0.49615   0.57894   0.83213   0.00000  Uiso   1.00
C1245  C     0.55644   0.56562   0.95869   0.00000  Uiso   1.00
C1246  C     0.41871   0.45302   0.94507   0.00000  Uiso   1.00
C1247  C     0.58129   0.54698   0.72160   0.00000  Uiso   1.00
C1248  C     0.40147   0.49931   0.82158   0.00000  Uiso   1.00
C1249  C     0.59853   0.50069   0.84509   0.00000  Uiso   1.00
C1250  C     0.34623   0.49388   0.81640   0.00000  Uiso   1.00
C1251  C     0.65377   0.50612   0.85027   0.00000  Uiso   1.00
C1252  C     0.51912   0.35665   0.79695   0.00000  Uiso   1.00
C1253  C     0.48088   0.64335   0.86971   0.00000  Uiso   1.00
C1254  C     0.50627   0.64772   0.79147   0.00000  Uiso   1.00
Cl1255 Cl    0.64979   0.46453   0.76792   0.00000  Uiso   1.00
Cl1256 Cl    0.35021   0.53547   0.89875   0.00000  Uiso   1.00
Cl1257 Cl    0.55476   0.38411   0.75642   0.00000  Uiso   1.00
Cl1258 Cl    0.44524   0.61589   0.91025   0.00000  Uiso   1.00
Cu1259 Cu    0.50000   0.50001   0.88022   0.00000  Uiso   1.00
Cu1260 Cu    0.50000   0.49999   0.78645   0.00000  Uiso   1.00
H1261  H     0.45530   0.59732   0.69371   0.00000  Uiso   1.00
H1262  H     0.54470   0.40268   0.97296   0.00000  Uiso   1.00
H1263  H     0.39166   0.40751   0.74643   0.00000  Uiso   1.00
H1264  H     0.60834   0.59249   0.92024   0.00000  Uiso   1.00
H1265  H     0.34198   0.44024   0.93961   0.00000  Uiso   1.00
H1266  H     0.65802   0.55976   0.72705   0.00000  Uiso   1.00
N1267  N     0.50001   0.50001   0.95069   0.00000  Uiso   1.00
N1268  N     0.49999   0.49999   0.71597   0.00000  Uiso   1.00
O1269  O     0.50000   0.43989   0.87291   0.00000  Uiso   1.00
O1270  O     0.45506   0.60723   0.72658   0.00000  Uiso   1.00
O1271  O     0.46592   0.36220   0.94782   0.00000  Uiso   1.00
O1272  O     0.54494   0.39277   0.94009   0.00000  Uiso   1.00
O1273  O     0.45557   0.40102   0.69738   0.00000  Uiso   1.00
O1274  O     0.40493   0.43581   0.73570   0.00000  Uiso   1.00
O1275  O     0.54443   0.59898   0.96929   0.00000  Uiso   1.00
O1276  O     0.59507   0.56419   0.93097   0.00000  Uiso   1.00
O1277  O     0.42134   0.43129   0.91214   0.00000  Uiso   1.00
O1278  O     0.37104   0.45637   0.95975   0.00000  Uiso   1.00
O1279  O     0.57866   0.56871   0.75453   0.00000  Uiso   1.00
O1280  O     0.50000   0.56011   0.79375   0.00000  Uiso   1.00
O1281  O     0.62896   0.54363   0.70692   0.00000  Uiso   1.00
O1282  O     0.50000   0.43988   0.79372   0.00000  Uiso   1.00
O1283  O     0.50000   0.56012   0.87294   0.00000  Uiso   1.00
O1284  O     0.42495   0.50000   0.86379   0.00000  Uiso   1.00
O1285  O     0.57505   0.50000   0.80288   0.00000  Uiso   1.00
O1286  O     0.42494   0.49999   0.78460   0.00000  Uiso   1.00
O1287  O     0.57506   0.50001   0.88207   0.00000  Uiso   1.00
O1288  O     0.53408   0.63780   0.71885   0.00000  Uiso   1.00
C1289  C     0.83718   0.42106   0.83453   0.00000  Uiso   1.00
C1290  C     0.82706   0.35228   0.87520   0.00000  Uiso   1.00
C1291  C     0.82536   0.62374   0.83000   0.00000  Uiso   1.00
C1292  C     0.84131   0.37626   0.83666   0.00000  Uiso   1.00
C1293  C     0.80140   0.47225   0.68808   0.00000  Uiso   1.00
C1294  C     0.86526   0.52775   0.97858   0.00000  Uiso   1.00
C1295  C     0.79862   0.47439   0.97192   0.00000  Uiso   1.00
C1296  C     0.86805   0.52561   0.69474   0.00000  Uiso   1.00
C1297  C     0.83374   0.63060   0.74370   0.00000  Uiso   1.00
C1298  C     0.83293   0.36940   0.92297   0.00000  Uiso   1.00
C1299  C     0.77689   0.43438   0.70797   0.00000  Uiso   1.00
C1300  C     0.82949   0.57894   0.83213   0.00000  Uiso   1.00
C1301  C     0.88978   0.56562   0.95869   0.00000  Uiso   1.00
C1302  C     0.75205   0.45302   0.94507   0.00000  Uiso   1.00
C1303  C     0.91462   0.54698   0.72160   0.00000  Uiso   1.00
C1304  C     0.73480   0.49931   0.82158   0.00000  Uiso   1.00
C1305  C     0.93187   0.50069   0.84509   0.00000  Uiso   1.00
C1306  C     0.67956   0.49388   0.81640   0.00000  Uiso   1.00
C1307  C     0.98711   0.50612   0.85027   0.00000  Uiso   1.00
C1308  C     0.85245   0.35665   0.79695   0.00000  Uiso   1.00
C1309  C     0.81422   0.64335   0.86971   0.00000  Uiso   1.00
C1310  C     0.83960   0.64772   0.79147   0.00000  Uiso   1.00
Cl1311 Cl    0.98312   0.46453   0.76792   0.00000  Uiso   1.00
Cl1312 Cl    0.68354   0.53547   0.89875   0.00000  Uiso   1.00
Cl1313 Cl    0.88809   0.38411   0.75642   0.00000  Uiso   1.00
Cl1314 Cl    0.77858   0.61589   0.91025   0.00000  Uiso   1.00
Cu1315 Cu    0.83333   0.50001   0.88022   0.00000  Uiso   1.00
Cu1316 Cu    0.83333   0.49999   0.78645   0.00000  Uiso   1.00
H1317  H     0.78863   0.59732   0.69371   0.00000  Uiso   1.00
H1318  H     0.87804   0.40268   0.97296   0.00000  Uiso   1.00
H1319  H     0.72499   0.40751   0.74643   0.00000  Uiso   1.00
H1320  H     0.94167   0.59249   0.92024   0.00000  Uiso   1.00
H1321  H     0.67532   0.44024   0.93961   0.00000  Uiso   1.00
H1322  H     0.99135   0.55976   0.72705   0.00000  Uiso   1.00
N1323  N     0.83335   0.50001   0.95069   0.00000  Uiso   1.00
N1324  N     0.83332   0.49999   0.71597   0.00000  Uiso   1.00
O1325  O     0.83333   0.43989   0.87291   0.00000  Uiso   1.00
O1326  O     0.78840   0.60723   0.72658   0.00000  Uiso   1.00
O1327  O     0.79925   0.36220   0.94782   0.00000  Uiso   1.00
O1328  O     0.87827   0.39277   0.94009   0.00000  Uiso   1.00
O1329  O     0.78890   0.40102   0.69738   0.00000  Uiso   1.00
O1330  O     0.73827   0.43581   0.73570   0.00000  Uiso   1.00
O1331  O     0.87776   0.59898   0.96929   0.00000  Uiso   1.00
O1332  O     0.92840   0.56419   0.93097   0.00000  Uiso   1.00
O1333  O     0.75467   0.43129   0.91214   0.00000  Uiso   1.00
O1334  O     0.70437   0.45637   0.95975   0.00000  Uiso   1.00
O1335  O     0.91200   0.56871   0.75453   0.00000  Uiso   1.00
O1336  O     0.83334   0.56011   0.79375   0.00000  Uiso   1.00
O1337  O     0.96229   0.54363   0.70692   0.00000  Uiso   1.00
O1338  O     0.83333   0.43988   0.79372   0.00000  Uiso   1.00
O1339  O     0.83334   0.56012   0.87294   0.00000  Uiso   1.00
O1340  O     0.75828   0.50000   0.86379   0.00000  Uiso   1.00
O1341  O     0.90839   0.50000   0.80288   0.00000  Uiso   1.00
O1342  O     0.75828   0.49999   0.78460   0.00000  Uiso   1.00
O1343  O     0.90839   0.50001   0.88207   0.00000  Uiso   1.00
O1344  O     0.86742   0.63780   0.71885   0.00000  Uiso   1.00
C1345  C     0.17052   0.75440   0.83453   0.00000  Uiso   1.00
C1346  C     0.16040   0.68561   0.87520   0.00000  Uiso   1.00
C1347  C     0.15869   0.95708   0.83000   0.00000  Uiso   1.00
C1348  C     0.17464   0.70959   0.83666   0.00000  Uiso   1.00
C1349  C     0.13474   0.80559   0.68808   0.00000  Uiso   1.00
C1350  C     0.19860   0.86108   0.97858   0.00000  Uiso   1.00
C1351  C     0.13195   0.80772   0.97192   0.00000  Uiso   1.00
C1352  C     0.20138   0.85895   0.69474   0.00000  Uiso   1.00
C1353  C     0.16707   0.96393   0.74370   0.00000  Uiso   1.00
C1354  C     0.16626   0.70273   0.92297   0.00000  Uiso   1.00
C1355  C     0.11022   0.76771   0.70797   0.00000  Uiso   1.00
C1356  C     0.16282   0.91227   0.83213   0.00000  Uiso   1.00
C1357  C     0.22311   0.89896   0.95869   0.00000  Uiso   1.00
C1358  C     0.08538   0.78636   0.94507   0.00000  Uiso   1.00
C1359  C     0.24795   0.88031   0.72160   0.00000  Uiso   1.00
C1360  C     0.06813   0.83264   0.82158   0.00000  Uiso   1.00
C1361  C     0.26520   0.83403   0.84509   0.00000  Uiso   1.00
C1362  C     0.01289   0.82721   0.81640   0.00000  Uiso   1.00
C1363  C     0.32044   0.83945   0.85027   0.00000  Uiso   1.00
C1364  C     0.18578   0.68999   0.79695   0.00000  Uiso   1.00
C1365  C     0.14755   0.97668   0.86971   0.00000  Uiso   1.00
C1366  C     0.17294   0.98105   0.79147   0.00000  Uiso   1.00
Cl1367 Cl    0.31646   0.79786   0.76792   0.00000  Uiso   1.00
Cl1368 Cl    0.01688   0.86881   0.89875   0.00000  Uiso   1.00
Cl1369 Cl    0.22142   0.71745   0.75642   0.00000  Uiso   1.00
Cl1370 Cl    0.11191   0.94922   0.91025   0.00000  Uiso   1.00
Cu1371 Cu    0.16667   0.83334   0.88022   0.00000  Uiso   1.00
Cu1372 Cu    0.16667   0.83333   0.78645   0.00000  Uiso   1.00
H1373  H     0.12196   0.93065   0.69371   0.00000  Uiso   1.00
H1374  H     0.21137   0.73602   0.97296   0.00000  Uiso   1.00
H1375  H     0.05833   0.74084   0.74643   0.00000  Uiso   1.00
H1376  H     0.27501   0.92583   0.92024   0.00000  Uiso   1.00
H1377  H     0.00865   0.77357   0.93961   0.00000  Uiso   1.00
H1378  H     0.32468   0.89310   0.72705   0.00000  Uiso   1.00
N1379  N     0.16668   0.83334   0.95069   0.00000  Uiso   1.00
N1380  N     0.16665   0.83332   0.71597   0.00000  Uiso   1.00
O1381  O     0.16666   0.77322   0.87291   0.00000  Uiso   1.00
O1382  O     0.12173   0.94056   0.72658   0.00000  Uiso   1.00
O1383  O     0.13258   0.69553   0.94782   0.00000  Uiso   1.00
O1384  O     0.21160   0.72610   0.94009   0.00000  Uiso   1.00
O1385  O     0.12224   0.73436   0.69738   0.00000  Uiso   1.00
O1386  O     0.07160   0.76914   0.73570   0.00000  Uiso   1.00
O1387  O     0.21110   0.93231   0.96929   0.00000  Uiso   1.00
O1388  O     0.26173   0.89752   0.93097   0.00000  Uiso   1.00
O1389  O     0.08801   0.76463   0.91214   0.00000  Uiso   1.00
O1390  O     0.03771   0.78971   0.95975   0.00000  Uiso   1.00
O1391  O     0.24533   0.90204   0.75453   0.00000  Uiso   1.00
O1392  O     0.16667   0.89345   0.79375   0.00000  Uiso   1.00
O1393  O     0.29563   0.87696   0.70692   0.00000  Uiso   1.00
O1394  O     0.16666   0.77321   0.79372   0.00000  Uiso   1.00
O1395  O     0.16667   0.89346   0.87294   0.00000  Uiso   1.00
O1396  O     0.09161   0.83334   0.86379   0.00000  Uiso   1.00
O1397  O     0.24172   0.83333   0.80288   0.00000  Uiso   1.00
O1398  O     0.09161   0.83333   0.78460   0.00000  Uiso   1.00
O1399  O     0.24172   0.83334   0.88207   0.00000  Uiso   1.00
O1400  O     0.20075   0.97113   0.71885   0.00000  Uiso   1.00
C1401  C     0.50385   0.75440   0.83453   0.00000  Uiso   1.00
C1402  C     0.49373   0.68561   0.87520   0.00000  Uiso   1.00
C1403  C     0.49203   0.95708   0.83000   0.00000  Uiso   1.00
C1404  C     0.50797   0.70959   0.83666   0.00000  Uiso   1.00
C1405  C     0.46807   0.80559   0.68808   0.00000  Uiso   1.00
C1406  C     0.53193   0.86108   0.97858   0.00000  Uiso   1.00
C1407  C     0.46529   0.80772   0.97192   0.00000  Uiso   1.00
C1408  C     0.53471   0.85895   0.69474   0.00000  Uiso   1.00
C1409  C     0.50041   0.96393   0.74370   0.00000  Uiso   1.00
C1410  C     0.49959   0.70273   0.92297   0.00000  Uiso   1.00
C1411  C     0.44356   0.76771   0.70797   0.00000  Uiso   1.00
C1412  C     0.49615   0.91227   0.83213   0.00000  Uiso   1.00
C1413  C     0.55644   0.89896   0.95869   0.00000  Uiso   1.00
C1414  C     0.41871   0.78636   0.94507   0.00000  Uiso   1.00
C1415  C     0.58129   0.88031   0.72160   0.00000  Uiso   1.00
C1416  C     0.40147   0.83264   0.82158   0.00000  Uiso   1.00
C1417  C     0.59853   0.83403   0.84509   0.00000  Uiso   1.00
C1418  C     0.34623   0.82721   0.81640   0.00000  Uiso   1.00
C1419  C     0.65377   0.83945   0.85027   0.00000  Uiso   1.00
C1420  C     0.51912   0.68999   0.79695   0.00000  Uiso   1.00
C1421  C     0.48088   0.97668   0.86971   0.00000  Uiso   1.00
C1422  C     0.50627   0.98105   0.79147   0.00000  Uiso   1.00
Cl1423 Cl    0.64979   0.79786   0.76792   0.00000  Uiso   1.00
Cl1424 Cl    0.35021   0.86881   0.89875   0.00000  Uiso   1.00
Cl1425 Cl    0.55476   0.71745   0.75642   0.00000  Uiso   1.00
Cl1426 Cl    0.44524   0.94922   0.91025   0.00000  Uiso   1.00
Cu1427 Cu    0.50000   0.83334   0.88022   0.00000  Uiso   1.00
Cu1428 Cu    0.50000   0.83333   0.78645   0.00000  Uiso   1.00
H1429  H     0.45530   0.93065   0.69371   0.00000  Uiso   1.00
H1430  H     0.54470   0.73602   0.97296   0.00000  Uiso   1.00
H1431  H     0.39166   0.74084   0.74643   0.00000  Uiso   1.00
H1432  H     0.60834   0.92583   0.92024   0.00000  Uiso   1.00
H1433  H     0.34198   0.77357   0.93961   0.00000  Uiso   1.00
H1434  H     0.65802   0.89310   0.72705   0.00000  Uiso   1.00
N1435  N     0.50001   0.83334   0.95069   0.00000  Uiso   1.00
N1436  N     0.49999   0.83332   0.71597   0.00000  Uiso   1.00
O1437  O     0.50000   0.77322   0.87291   0.00000  Uiso   1.00
O1438  O     0.45506   0.94056   0.72658   0.00000  Uiso   1.00
O1439  O     0.46592   0.69553   0.94782   0.00000  Uiso   1.00
O1440  O     0.54494   0.72610   0.94009   0.00000  Uiso   1.00
O1441  O     0.45557   0.73436   0.69738   0.00000  Uiso   1.00
O1442  O     0.40493   0.76914   0.73570   0.00000  Uiso   1.00
O1443  O     0.54443   0.93231   0.96929   0.00000  Uiso   1.00
O1444  O     0.59507   0.89752   0.93097   0.00000  Uiso   1.00
O1445  O     0.42134   0.76463   0.91214   0.00000  Uiso   1.00
O1446  O     0.37104   0.78971   0.95975   0.00000  Uiso   1.00
O1447  O     0.57866   0.90204   0.75453   0.00000  Uiso   1.00
O1448  O     0.50000   0.89345   0.79375   0.00000  Uiso   1.00
O1449  O     0.62896   0.87696   0.70692   0.00000  Uiso   1.00
O1450  O     0.50000   0.77321   0.79372   0.00000  Uiso   1.00
O1451  O     0.50000   0.89346   0.87294   0.00000  Uiso   1.00
O1452  O     0.42495   0.83334   0.86379   0.00000  Uiso   1.00
O1453  O     0.57505   0.83333   0.80288   0.00000  Uiso   1.00
O1454  O     0.42494   0.83333   0.78460   0.00000  Uiso   1.00
O1455  O     0.57506   0.83334   0.88207   0.00000  Uiso   1.00
O1456  O     0.53408   0.97113   0.71885   0.00000  Uiso   1.00
C1457  C     0.83718   0.75440   0.83453   0.00000  Uiso   1.00
C1458  C     0.82706   0.68561   0.87520   0.00000  Uiso   1.00
C1459  C     0.82536   0.95708   0.83000   0.00000  Uiso   1.00
C1460  C     0.84131   0.70959   0.83666   0.00000  Uiso   1.00
C1461  C     0.80140   0.80559   0.68808   0.00000  Uiso   1.00
C1462  C     0.86526   0.86108   0.97858   0.00000  Uiso   1.00
C1463  C     0.79862   0.80772   0.97192   0.00000  Uiso   1.00
C1464  C     0.86805   0.85895   0.69474   0.00000  Uiso   1.00
C1465  C     0.83374   0.96393   0.74370   0.00000  Uiso   1.00
C1466  C     0.83293   0.70273   0.92297   0.00000  Uiso   1.00
C1467  C     0.77689   0.76771   0.70797   0.00000  Uiso   1.00
C1468  C     0.82949   0.91227   0.83213   0.00000  Uiso   1.00
C1469  C     0.88978   0.89896   0.95869   0.00000  Uiso   1.00
C1470  C     0.75205   0.78636   0.94507   0.00000  Uiso   1.00
C1471  C     0.91462   0.88031   0.72160   0.00000  Uiso   1.00
C1472  C     0.73480   0.83264   0.82158   0.00000  Uiso   1.00
C1473  C     0.93187   0.83403   0.84509   0.00000  Uiso   1.00
C1474  C     0.67956   0.82721   0.81640   0.00000  Uiso   1.00
C1475  C     0.98711   0.83945   0.85027   0.00000  Uiso   1.00
C1476  C     0.85245   0.68999   0.79695   0.00000  Uiso   1.00
C1477  C     0.81422   0.97668   0.86971   0.00000  Uiso   1.00
C1478  C     0.83960   0.98105   0.79147   0.00000  Uiso   1.00
Cl1479 Cl    0.98312   0.79786   0.76792   0.00000  Uiso   1.00
Cl1480 Cl    0.68354   0.86881   0.89875   0.00000  Uiso   1.00
Cl1481 Cl    0.88809   0.71745   0.75642   0.00000  Uiso   1.00
Cl1482 Cl    0.77858   0.94922   0.91025   0.00000  Uiso   1.00
Cu1483 Cu    0.83333   0.83334   0.88022   0.00000  Uiso   1.00
Cu1484 Cu    0.83333   0.83333   0.78645   0.00000  Uiso   1.00
H1485  H     0.78863   0.93065   0.69371   0.00000  Uiso   1.00
H1486  H     0.87804   0.73602   0.97296   0.00000  Uiso   1.00
H1487  H     0.72499   0.74084   0.74643   0.00000  Uiso   1.00
H1488  H     0.94167   0.92583   0.92024   0.00000  Uiso   1.00
H1489  H     0.67532   0.77357   0.93961   0.00000  Uiso   1.00
H1490  H     0.99135   0.89310   0.72705   0.00000  Uiso   1.00
N1491  N     0.83335   0.83334   0.95069   0.00000  Uiso   1.00
N1492  N     0.83332   0.83332   0.71597   0.00000  Uiso   1.00
O1493  O     0.83333   0.77322   0.87291   0.00000  Uiso   1.00
O1494  O     0.78840   0.94056   0.72658   0.00000  Uiso   1.00
O1495  O     0.79925   0.69553   0.94782   0.00000  Uiso   1.00
O1496  O     0.87827   0.72610   0.94009   0.00000  Uiso   1.00
O1497  O     0.78890   0.73436   0.69738   0.00000  Uiso   1.00
O1498  O     0.73827   0.76914   0.73570   0.00000  Uiso   1.00
O1499  O     0.87776   0.93231   0.96929   0.00000  Uiso   1.00
O1500  O     0.92840   0.89752   0.93097   0.00000  Uiso   1.00
O1501  O     0.75467   0.76463   0.91214   0.00000  Uiso   1.00
O1502  O     0.70437   0.78971   0.95975   0.00000  Uiso   1.00
O1503  O     0.91200   0.90204   0.75453   0.00000  Uiso   1.00
O1504  O     0.83334   0.89345   0.79375   0.00000  Uiso   1.00
O1505  O     0.96229   0.87696   0.70692   0.00000  Uiso   1.00
O1506  O     0.83333   0.77321   0.79372   0.00000  Uiso   1.00
O1507  O     0.83334   0.89346   0.87294   0.00000  Uiso   1.00
O1508  O     0.75828   0.83334   0.86379   0.00000  Uiso   1.00
O1509  O     0.90839   0.83333   0.80288   0.00000  Uiso   1.00
O1510  O     0.75828   0.83333   0.78460   0.00000  Uiso   1.00
O1511  O     0.90839   0.83334   0.88207   0.00000  Uiso   1.00
O1512  O     0.86742   0.97113   0.71885   0.00000  Uiso   1.00
loop_
_geom_bond_atom_site_label_1
_geom_bond_atom_site_label_2
_geom_bond_distance
_geom_bond_site_symmetry_2
_ccdc_geom_bond_type
C1     O37     1.304   .     A
C1     O50     1.313   .     A
C1     C4      1.478   .     S
C2     C4      1.418   .     A
C2     C10     1.488   .     S
C2     C357    1.399   1_545 S
C3     C21     1.408   .     A
C3     C12     1.478   .     S
C3     C22     1.418   .     A
C4     C20     1.408   .     A
C5     C11     1.483   .     S
C5     N36     1.378   .     A
C5     C1015   1.424   1_554 S
C6     N35     1.378   .     A
C6     C13     1.483   .     S
C6     C512    1.424   .     S
C7     N35     1.380   .     A
C7     C14     1.490   .     S
C7     C509    1.424   .     S
C8     C15     1.490   .     S
C8     N36     1.380   .     A
C8     C1014   1.424   1_554 S
C9     O56     1.222   .     D
C9     O38     1.399   .     S
C9     C22     1.488   .     S
C10    O40     1.399   .     S
C10    O39     1.222   .     D
C11    O41     1.222   .     D
C11    O42     1.387   .     S
C12    O48     1.304   .     A
C12    O51     1.313   .     A
C13    O43     1.222   .     D
C13    O44     1.387   .     S
C14    O46     1.399   .     S
C14    O45     1.217   .     D
C15    O47     1.217   .     D
C15    O49     1.399   .     S
C16    C18     1.444   .     S
C16    O54     1.307   .     A
C16    O52     1.293   .     A
C17    O55     1.307   .     A
C17    C19     1.444   .     S
C17    O53     1.293   .     A
C18    C131    1.356   1_455 S
C18    Cl135   1.772   1_455 S
C19    C74     1.356   .     S
C19    Cl80    1.772   .     S
C20    Cl25    1.777   .     S
C20    C358    1.399   1_545 S
C21    Cl26    1.777   .     S
C21    C170    1.399   .     S
C22    C188    1.399   .     S
Cl23   C74     1.772   .     S
Cl24   C131    1.772   1_455 S
Cu27   O37     1.982   .     S
Cu27   O51     1.971   .     S
Cu27   O55     1.980   .     S
Cu27   O52     1.980   .     S
Cu27   Cu28    2.713   .     S
Cu27   N35     2.039   .     S
Cu28   O53     1.980   .     S
Cu28   O50     1.971   .     S
Cu28   N36     2.039   .     S
Cu28   O54     1.980   .     S
Cu28   O48     1.982   .     S
H29    O38     1.014   .     S
H30    O40     1.014   .     S
H31    O42     1.014   .     S
H32    O44     1.014   .     S
H33    O46     1.014   .     S
H34    O49     1.014   .     S
C57    O93     1.304   .     A
C57    O106    1.313   .     A
C57    C60     1.478   .     S
C58    C60     1.418   .     A
C58    C66     1.488   .     S
C58    C413    1.399   1_545 S
C59    C77     1.408   .     A
C59    C68     1.478   .     S
C59    C78     1.418   .     A
C60    C76     1.408   .     A
C61    C67     1.483   .     S
C61    N92     1.378   .     A
C61    C1071   1.424   1_554 S
C62    N91     1.378   .     A
C62    C69     1.483   .     S
C62    C568    1.424   .     S
C63    N91     1.380   .     A
C63    C70     1.490   .     S
C63    C565    1.424   .     S
C64    C71     1.490   .     S
C64    N92     1.380   .     A
C64    C1070   1.424   1_554 S
C65    O112    1.222   .     D
C65    O94     1.399   .     S
C65    C78     1.488   .     S
C66    O96     1.399   .     S
C66    O95     1.222   .     D
C67    O97     1.222   .     D
C67    O98     1.387   .     S
C68    O104    1.304   .     A
C68    O107    1.313   .     A
C69    O99     1.222   .     D
C69    O100    1.387   .     S
C70    O102    1.399   .     S
C70    O101    1.217   .     D
C71    O103    1.217   .     D
C71    O105    1.399   .     S
C72    C74     1.444   .     S
C72    O110    1.307   .     A
C72    O108    1.293   .     A
C73    O111    1.307   .     A
C73    C75     1.444   .     S
C73    O109    1.293   .     A
C75    C130    1.356   .     S
C75    Cl136   1.772   .     S
C76    Cl81    1.777   .     S
C76    C414    1.399   1_545 S
C77    Cl82    1.777   .     S
C77    C226    1.399   .     S
C78    C244    1.399   .     S
Cl79   C130    1.772   .     S
Cu83   O93     1.982   .     S
Cu83   O107    1.971   .     S
Cu83   O111    1.980   .     S
Cu83   O108    1.980   .     S
Cu83   Cu84    2.713   .     S
Cu83   N91     2.039   .     S
Cu84   O109    1.980   .     S
Cu84   O106    1.971   .     S
Cu84   N92     2.039   .     S
Cu84   O110    1.980   .     S
Cu84   O104    1.982   .     S
H85    O94     1.014   .     S
H86    O96     1.014   .     S
H87    O98     1.014   .     S
H88    O100    1.014   .     S
H89    O102    1.014   .     S
H90    O105    1.014   .     S
C113   O149    1.304   .     A
C113   O162    1.313   .     A
C113   C116    1.478   .     S
C114   C116    1.418   .     A
C114   C122    1.488   .     S
C114   C469    1.399   1_545 S
C115   C133    1.408   .     A
C115   C124    1.478   .     S
C115   C134    1.418   .     A
C116   C132    1.408   .     A
C117   C123    1.483   .     S
C117   N148    1.378   .     A
C117   C1127   1.424   1_554 S
C118   N147    1.378   .     A
C118   C125    1.483   .     S
C118   C624    1.424   .     S
C119   N147    1.380   .     A
C119   C126    1.490   .     S
C119   C621    1.424   .     S
C120   C127    1.490   .     S
C120   N148    1.380   .     A
C120   C1126   1.424   1_554 S
C121   O168    1.222   .     D
C121   O150    1.399   .     S
C121   C134    1.488   .     S
C122   O152    1.399   .     S
C122   O151    1.222   .     D
C123   O153    1.222   .     D
C123   O154    1.387   .     S
C124   O160    1.304   .     A
C124   O163    1.313   .     A
C125   O155    1.222   .     D
C125   O156    1.387   .     S
C126   O158    1.399   .     S
C126   O157    1.217   .     D
C127   O159    1.217   .     D
C127   O161    1.399   .     S
C128   C130    1.444   .     S
C128   O166    1.307   .     A
C128   O164    1.293   .     A
C129   O167    1.307   .     A
C129   C131    1.444   .     S
C129   O165    1.293   .     A
C131   C18     1.356   1_655 S
C131   Cl24    1.772   1_655 S
C132   Cl137   1.777   .     S
C132   C470    1.399   1_545 S
C133   Cl138   1.777   .     S
C133   C282    1.399   .     S
C134   C300    1.399   .     S
Cl135  C18     1.772   1_655 S
Cu139  O149    1.982   .     S
Cu139  O163    1.971   .     S
Cu139  O167    1.980   .     S
Cu139  O164    1.980   .     S
Cu139  Cu140   2.713   .     S
Cu139  N147    2.039   .     S
Cu140  O165    1.980   .     S
Cu140  O162    1.971   .     S
Cu140  N148    2.039   .     S
Cu140  O166    1.980   .     S
Cu140  O160    1.982   .     S
H141   O150    1.014   .     S
H142   O152    1.014   .     S
H143   O154    1.014   .     S
H144   O156    1.014   .     S
H145   O158    1.014   .     S
H146   O161    1.014   .     S
C169   O205    1.304   .     A
C169   O218    1.313   .     A
C169   C172    1.478   .     S
C170   C172    1.418   .     A
C170   C178    1.488   .     S
C171   C189    1.408   .     A
C171   C180    1.478   .     S
C171   C190    1.418   .     A
C172   C188    1.408   .     A
C173   C179    1.483   .     S
C173   N204    1.378   .     A
C173   C1183   1.424   1_554 S
C174   N203    1.378   .     A
C174   C181    1.483   .     S
C174   C680    1.424   .     S
C175   N203    1.380   .     A
C175   C182    1.490   .     S
C175   C677    1.424   .     S
C176   C183    1.490   .     S
C176   N204    1.380   .     A
C176   C1182   1.424   1_554 S
C177   O224    1.222   .     D
C177   O206    1.399   .     S
C177   C190    1.488   .     S
C178   O208    1.399   .     S
C178   O207    1.222   .     D
C179   O209    1.222   .     D
C179   O210    1.387   .     S
C180   O216    1.304   .     A
C180   O219    1.313   .     A
C181   O211    1.222   .     D
C181   O212    1.387   .     S
C182   O214    1.399   .     S
C182   O213    1.217   .     D
C183   O215    1.217   .     D
C183   O217    1.399   .     S
C184   C186    1.444   .     S
C184   O222    1.307   .     A
C184   O220    1.293   .     A
C185   O223    1.307   .     A
C185   C187    1.444   .     S
C185   O221    1.293   .     A
C186   C299    1.356   1_455 S
C186   Cl303   1.772   1_455 S
C187   C242    1.356   .     S
C187   Cl248   1.772   .     S
C188   Cl193   1.777   .     S
C189   Cl194   1.777   .     S
C189   C338    1.399   .     S
C190   C356    1.399   .     S
Cl191  C242    1.772   .     S
Cl192  C299    1.772   1_455 S
Cu195  O205    1.982   .     S
Cu195  O219    1.971   .     S
Cu195  O223    1.980   .     S
Cu195  O220    1.980   .     S
Cu195  Cu196   2.713   .     S
Cu195  N203    2.039   .     S
Cu196  O221    1.980   .     S
Cu196  O218    1.971   .     S
Cu196  N204    2.039   .     S
Cu196  O222    1.980   .     S
Cu196  O216    1.982   .     S
H197   O206    1.014   .     S
H198   O208    1.014   .     S
H199   O210    1.014   .     S
H200   O212    1.014   .     S
H201   O214    1.014   .     S
H202   O217    1.014   .     S
C225   O261    1.304   .     A
C225   O274    1.313   .     A
C225   C228    1.478   .     S
C226   C228    1.418   .     A
C226   C234    1.488   .     S
C227   C245    1.408   .     A
C227   C236    1.478   .     S
C227   C246    1.418   .     A
C228   C244    1.408   .     A
C229   C235    1.483   .     S
C229   N260    1.378   .     A
C229   C1239   1.424   1_554 S
C230   N259    1.378   .     A
C230   C237    1.483   .     S
C230   C736    1.424   .     S
C231   N259    1.380   .     A
C231   C238    1.490   .     S
C231   C733    1.424   .     S
C232   C239    1.490   .     S
C232   N260    1.380   .     A
C232   C1238   1.424   1_554 S
C233   O280    1.222   .     D
C233   O262    1.399   .     S
C233   C246    1.488   .     S
C234   O264    1.399   .     S
C234   O263    1.222   .     D
C235   O265    1.222   .     D
C235   O266    1.387   .     S
C236   O272    1.304   .     A
C236   O275    1.313   .     A
C237   O267    1.222   .     D
C237   O268    1.387   .     S
C238   O270    1.399   .     S
C238   O269    1.217   .     D
C239   O271    1.217   .     D
C239   O273    1.399   .     S
C240   C242    1.444   .     S
C240   O278    1.307   .     A
C240   O276    1.293   .     A
C241   O279    1.307   .     A
C241   C243    1.444   .     S
C241   O277    1.293   .     A
C243   C298    1.356   .     S
C243   Cl304   1.772   .     S
C244   Cl249   1.777   .     S
C245   Cl250   1.777   .     S
C245   C394    1.399   .     S
C246   C412    1.399   .     S
Cl247  C298    1.772   .     S
Cu251  O261    1.982   .     S
Cu251  O275    1.971   .     S
Cu251  O279    1.980   .     S
Cu251  O276    1.980   .     S
Cu251  Cu252   2.713   .     S
Cu251  N259    2.039   .     S
Cu252  O277    1.980   .     S
Cu252  O274    1.971   .     S
Cu252  N260    2.039   .     S
Cu252  O278    1.980   .     S
Cu252  O272    1.982   .     S
H253   O262    1.014   .     S
H254   O264    1.014   .     S
H255   O266    1.014   .     S
H256   O268    1.014   .     S
H257   O270    1.014   .     S
H258   O273    1.014   .     S
C281   O317    1.304   .     A
C281   O330    1.313   .     A
C281   C284    1.478   .     S
C282   C284    1.418   .     A
C282   C290    1.488   .     S
C283   C301    1.408   .     A
C283   C292    1.478   .     S
C283   C302    1.418   .     A
C284   C300    1.408   .     A
C285   C291    1.483   .     S
C285   N316    1.378   .     A
C285   C1295   1.424   1_554 S
C286   N315    1.378   .     A
C286   C293    1.483   .     S
C286   C792    1.424   .     S
C287   N315    1.380   .     A
C287   C294    1.490   .     S
C287   C789    1.424   .     S
C288   C295    1.490   .     S
C288   N316    1.380   .     A
C288   C1294   1.424   1_554 S
C289   O336    1.222   .     D
C289   O318    1.399   .     S
C289   C302    1.488   .     S
C290   O320    1.399   .     S
C290   O319    1.222   .     D
C291   O321    1.222   .     D
C291   O322    1.387   .     S
C292   O328    1.304   .     A
C292   O331    1.313   .     A
C293   O323    1.222   .     D
C293   O324    1.387   .     S
C294   O326    1.399   .     S
C294   O325    1.217   .     D
C295   O327    1.217   .     D
C295   O329    1.399   .     S
C296   C298    1.444   .     S
C296   O334    1.307   .     A
C296   O332    1.293   .     A
C297   O335    1.307   .     A
C297   C299    1.444   .     S
C297   O333    1.293   .     A
C299   C186    1.356   1_655 S
C299   Cl192   1.772   1_655 S
C300   Cl305   1.777   .     S
C301   Cl306   1.777   .     S
C301   C450    1.399   .     S
C302   C468    1.399   .     S
Cl303  C186    1.772   1_655 S
Cu307  O317    1.982   .     S
Cu307  O331    1.971   .     S
Cu307  O335    1.980   .     S
Cu307  O332    1.980   .     S
Cu307  Cu308   2.713   .     S
Cu307  N315    2.039   .     S
Cu308  O333    1.980   .     S
Cu308  O330    1.971   .     S
Cu308  N316    2.039   .     S
Cu308  O334    1.980   .     S
Cu308  O328    1.982   .     S
H309   O318    1.014   .     S
H310   O320    1.014   .     S
H311   O322    1.014   .     S
H312   O324    1.014   .     S
H313   O326    1.014   .     S
H314   O329    1.014   .     S
C337   O373    1.304   .     A
C337   O386    1.313   .     A
C337   C340    1.478   .     S
C338   C340    1.418   .     A
C338   C346    1.488   .     S
C339   C357    1.408   .     A
C339   C348    1.478   .     S
C339   C358    1.418   .     A
C340   C356    1.408   .     A
C341   C347    1.483   .     S
C341   N372    1.378   .     A
C341   C1351   1.424   1_554 S
C342   N371    1.378   .     A
C342   C349    1.483   .     S
C342   C848    1.424   .     S
C343   N371    1.380   .     A
C343   C350    1.490   .     S
C343   C845    1.424   .     S
C344   C351    1.490   .     S
C344   N372    1.380   .     A
C344   C1350   1.424   1_554 S
C345   O392    1.222   .     D
C345   O374    1.399   .     S
C345   C358    1.488   .     S
C346   O376    1.399   .     S
C346   O375    1.222   .     D
C347   O377    1.222   .     D
C347   O378    1.387   .     S
C348   O384    1.304   .     A
C348   O387    1.313   .     A
C349   O379    1.222   .     D
C349   O380    1.387   .     S
C350   O382    1.399   .     S
C350   O381    1.217   .     D
C351   O383    1.217   .     D
C351   O385    1.399   .     S
C352   C354    1.444   .     S
C352   O390    1.307   .     A
C352   O388    1.293   .     A
C353   O391    1.307   .     A
C353   C355    1.444   .     S
C353   O389    1.293   .     A
C354   C467    1.356   1_455 S
C354   Cl471   1.772   1_455 S
C355   C410    1.356   .     S
C355   Cl416   1.772   .     S
C356   Cl361   1.777   .     S
C357   Cl362   1.777   .     S
C357   C2      1.399   1_565 S
C358   C20     1.399   1_565 S
Cl359  C410    1.772   .     S
Cl360  C467    1.772   1_455 S
Cu363  O373    1.982   .     S
Cu363  O387    1.971   .     S
Cu363  O391    1.980   .     S
Cu363  O388    1.980   .     S
Cu363  Cu364   2.713   .     S
Cu363  N371    2.039   .     S
Cu364  O389    1.980   .     S
Cu364  O386    1.971   .     S
Cu364  N372    2.039   .     S
Cu364  O390    1.980   .     S
Cu364  O384    1.982   .     S
H365   O374    1.014   .     S
H366   O376    1.014   .     S
H367   O378    1.014   .     S
H368   O380    1.014   .     S
H369   O382    1.014   .     S
H370   O385    1.014   .     S
C393   O429    1.304   .     A
C393   O442    1.313   .     A
C393   C396    1.478   .     S
C394   C396    1.418   .     A
C394   C402    1.488   .     S
C395   C413    1.408   .     A
C395   C404    1.478   .     S
C395   C414    1.418   .     A
C396   C412    1.408   .     A
C397   C403    1.483   .     S
C397   N428    1.378   .     A
C397   C1407   1.424   1_554 S
C398   N427    1.378   .     A
C398   C405    1.483   .     S
C398   C904    1.424   .     S
C399   N427    1.380   .     A
C399   C406    1.490   .     S
C399   C901    1.424   .     S
C400   C407    1.490   .     S
C400   N428    1.380   .     A
C400   C1406   1.424   1_554 S
C401   O448    1.222   .     D
C401   O430    1.399   .     S
C401   C414    1.488   .     S
C402   O432    1.399   .     S
C402   O431    1.222   .     D
C403   O433    1.222   .     D
C403   O434    1.387   .     S
C404   O440    1.304   .     A
C404   O443    1.313   .     A
C405   O435    1.222   .     D
C405   O436    1.387   .     S
C406   O438    1.399   .     S
C406   O437    1.217   .     D
C407   O439    1.217   .     D
C407   O441    1.399   .     S
C408   C410    1.444   .     S
C408   O446    1.307   .     A
C408   O444    1.293   .     A
C409   O447    1.307   .     A
C409   C411    1.444   .     S
C409   O445    1.293   .     A
C411   C466    1.356   .     S
C411   Cl472   1.772   .     S
C412   Cl417   1.777   .     S
C413   Cl418   1.777   .     S
C413   C58     1.399   1_565 S
C414   C76     1.399   1_565 S
Cl415  C466    1.772   .     S
Cu419  O429    1.982   .     S
Cu419  O443    1.971   .     S
Cu419  O447    1.980   .     S
Cu419  O444    1.980   .     S
Cu419  Cu420   2.713   .     S
Cu419  N427    2.039   .     S
Cu420  O445    1.980   .     S
Cu420  O442    1.971   .     S
Cu420  N428    2.039   .     S
Cu420  O446    1.980   .     S
Cu420  O440    1.982   .     S
H421   O430    1.014   .     S
H422   O432    1.014   .     S
H423   O434    1.014   .     S
H424   O436    1.014   .     S
H425   O438    1.014   .     S
H426   O441    1.014   .     S
C449   O485    1.304   .     A
C449   O498    1.313   .     A
C449   C452    1.478   .     S
C450   C452    1.418   .     A
C450   C458    1.488   .     S
C451   C469    1.408   .     A
C451   C460    1.478   .     S
C451   C470    1.418   .     A
C452   C468    1.408   .     A
C453   C459    1.483   .     S
C453   N484    1.378   .     A
C453   C1463   1.424   1_554 S
C454   N483    1.378   .     A
C454   C461    1.483   .     S
C454   C960    1.424   .     S
C455   N483    1.380   .     A
C455   C462    1.490   .     S
C455   C957    1.424   .     S
C456   C463    1.490   .     S
C456   N484    1.380   .     A
C456   C1462   1.424   1_554 S
C457   O504    1.222   .     D
C457   O486    1.399   .     S
C457   C470    1.488   .     S
C458   O488    1.399   .     S
C458   O487    1.222   .     D
C459   O489    1.222   .     D
C459   O490    1.387   .     S
C460   O496    1.304   .     A
C460   O499    1.313   .     A
C461   O491    1.222   .     D
C461   O492    1.387   .     S
C462   O494    1.399   .     S
C462   O493    1.217   .     D
C463   O495    1.217   .     D
C463   O497    1.399   .     S
C464   C466    1.444   .     S
C464   O502    1.307   .     A
C464   O500    1.293   .     A
C465   O503    1.307   .     A
C465   C467    1.444   .     S
C465   O501    1.293   .     A
C467   C354    1.356   1_655 S
C467   Cl360   1.772   1_655 S
C468   Cl473   1.777   .     S
C469   Cl474   1.777   .     S
C469   C114    1.399   1_565 S
C470   C132    1.399   1_565 S
Cl471  C354    1.772   1_655 S
Cu475  O485    1.982   .     S
Cu475  O499    1.971   .     S
Cu475  O503    1.980   .     S
Cu475  O500    1.980   .     S
Cu475  Cu476   2.713   .     S
Cu475  N483    2.039   .     S
Cu476  O501    1.980   .     S
Cu476  O498    1.971   .     S
Cu476  N484    2.039   .     S
Cu476  O502    1.980   .     S
Cu476  O496    1.982   .     S
H477   O486    1.014   .     S
H478   O488    1.014   .     S
H479   O490    1.014   .     S
H480   O492    1.014   .     S
H481   O494    1.014   .     S
H482   O497    1.014   .     S
C505   O541    1.304   .     A
C505   O554    1.313   .     A
C505   C508    1.478   .     S
C506   C508    1.418   .     A
C506   C514    1.488   .     S
C506   C861    1.399   1_545 S
C507   C525    1.408   .     A
C507   C516    1.478   .     S
C507   C526    1.418   .     A
C508   C524    1.408   .     A
C509   C515    1.483   .     S
C509   N540    1.378   .     A
C510   N539    1.378   .     A
C510   C517    1.483   .     S
C510   C1016   1.424   .     S
C511   N539    1.380   .     A
C511   C518    1.490   .     S
C511   C1013   1.424   .     S
C512   C519    1.490   .     S
C512   N540    1.380   .     A
C513   O560    1.222   .     D
C513   O542    1.399   .     S
C513   C526    1.488   .     S
C514   O544    1.399   .     S
C514   O543    1.222   .     D
C515   O545    1.222   .     D
C515   O546    1.387   .     S
C516   O552    1.304   .     A
C516   O555    1.313   .     A
C517   O547    1.222   .     D
C517   O548    1.387   .     S
C518   O550    1.399   .     S
C518   O549    1.217   .     D
C519   O551    1.217   .     D
C519   O553    1.399   .     S
C520   C522    1.444   .     S
C520   O558    1.307   .     A
C520   O556    1.293   .     A
C521   O559    1.307   .     A
C521   C523    1.444   .     S
C521   O557    1.293   .     A
C522   C635    1.356   1_455 S
C522   Cl639   1.772   1_455 S
C523   C578    1.356   .     S
C523   Cl584   1.772   .     S
C524   Cl529   1.777   .     S
C524   C862    1.399   1_545 S
C525   Cl530   1.777   .     S
C525   C674    1.399   .     S
C526   C692    1.399   .     S
Cl527  C578    1.772   .     S
Cl528  C635    1.772   1_455 S
Cu531  O541    1.982   .     S
Cu531  O555    1.971   .     S
Cu531  O559    1.980   .     S
Cu531  O556    1.980   .     S
Cu531  Cu532   2.713   .     S
Cu531  N539    2.039   .     S
Cu532  O557    1.980   .     S
Cu532  O554    1.971   .     S
Cu532  N540    2.039   .     S
Cu532  O558    1.980   .     S
Cu532  O552    1.982   .     S
H533   O542    1.014   .     S
H534   O544    1.014   .     S
H535   O546    1.014   .     S
H536   O548    1.014   .     S
H537   O550    1.014   .     S
H538   O553    1.014   .     S
C561   O597    1.304   .     A
C561   O610    1.313   .     A
C561   C564    1.478   .     S
C562   C564    1.418   .     A
C562   C570    1.488   .     S
C562   C917    1.399   1_545 S
C563   C581    1.408   .     A
C563   C572    1.478   .     S
C563   C582    1.418   .     A
C564   C580    1.408   .     A
C565   C571    1.483   .     S
C565   N596    1.378   .     A
C566   N595    1.378   .     A
C566   C573    1.483   .     S
C566   C1072   1.424   .     S
C567   N595    1.380   .     A
C567   C574    1.490   .     S
C567   C1069   1.424   .     S
C568   C575    1.490   .     S
C568   N596    1.380   .     A
C569   O616    1.222   .     D
C569   O598    1.399   .     S
C569   C582    1.488   .     S
C570   O600    1.399   .     S
C570   O599    1.222   .     D
C571   O601    1.222   .     D
C571   O602    1.387   .     S
C572   O608    1.304   .     A
C572   O611    1.313   .     A
C573   O603    1.222   .     D
C573   O604    1.387   .     S
C574   O606    1.399   .     S
C574   O605    1.217   .     D
C575   O607    1.217   .     D
C575   O609    1.399   .     S
C576   C578    1.444   .     S
C576   O614    1.307   .     A
C576   O612    1.293   .     A
C577   O615    1.307   .     A
C577   C579    1.444   .     S
C577   O613    1.293   .     A
C579   C634    1.356   .     S
C579   Cl640   1.772   .     S
C580   Cl585   1.777   .     S
C580   C918    1.399   1_545 S
C581   Cl586   1.777   .     S
C581   C730    1.399   .     S
C582   C748    1.399   .     S
Cl583  C634    1.772   .     S
Cu587  O597    1.982   .     S
Cu587  O611    1.971   .     S
Cu587  O615    1.980   .     S
Cu587  O612    1.980   .     S
Cu587  Cu588   2.713   .     S
Cu587  N595    2.039   .     S
Cu588  O613    1.980   .     S
Cu588  O610    1.971   .     S
Cu588  N596    2.039   .     S
Cu588  O614    1.980   .     S
Cu588  O608    1.982   .     S
H589   O598    1.014   .     S
H590   O600    1.014   .     S
H591   O602    1.014   .     S
H592   O604    1.014   .     S
H593   O606    1.014   .     S
H594   O609    1.014   .     S
C617   O653    1.304   .     A
C617   O666    1.313   .     A
C617   C620    1.478   .     S
C618   C620    1.418   .     A
C618   C626    1.488   .     S
C618   C973    1.399   1_545 S
C619   C637    1.408   .     A
C619   C628    1.478   .     S
C619   C638    1.418   .     A
C620   C636    1.408   .     A
C621   C627    1.483   .     S
C621   N652    1.378   .     A
C622   N651    1.378   .     A
C622   C629    1.483   .     S
C622   C1128   1.424   .     S
C623   N651    1.380   .     A
C623   C630    1.490   .     S
C623   C1125   1.424   .     S
C624   C631    1.490   .     S
C624   N652    1.380   .     A
C625   O672    1.222   .     D
C625   O654    1.399   .     S
C625   C638    1.488   .     S
C626   O656    1.399   .     S
C626   O655    1.222   .     D
C627   O657    1.222   .     D
C627   O658    1.387   .     S
C628   O664    1.304   .     A
C628   O667    1.313   .     A
C629   O659    1.222   .     D
C629   O660    1.387   .     S
C630   O662    1.399   .     S
C630   O661    1.217   .     D
C631   O663    1.217   .     D
C631   O665    1.399   .     S
C632   C634    1.444   .     S
C632   O670    1.307   .     A
C632   O668    1.293   .     A
C633   O671    1.307   .     A
C633   C635    1.444   .     S
C633   O669    1.293   .     A
C635   C522    1.356   1_655 S
C635   Cl528   1.772   1_655 S
C636   Cl641   1.777   .     S
C636   C974    1.399   1_545 S
C637   Cl642   1.777   .     S
C637   C786    1.399   .     S
C638   C804    1.399   .     S
Cl639  C522    1.772   1_655 S
Cu643  O653    1.982   .     S
Cu643  O667    1.971   .     S
Cu643  O671    1.980   .     S
Cu643  O668    1.980   .     S
Cu643  Cu644   2.713   .     S
Cu643  N651    2.039   .     S
Cu644  O669    1.980   .     S
Cu644  O666    1.971   .     S
Cu644  N652    2.039   .     S
Cu644  O670    1.980   .     S
Cu644  O664    1.982   .     S
H645   O654    1.014   .     S
H646   O656    1.014   .     S
H647   O658    1.014   .     S
H648   O660    1.014   .     S
H649   O662    1.014   .     S
H650   O665    1.014   .     S
C673   O709    1.304   .     A
C673   O722    1.313   .     A
C673   C676    1.478   .     S
C674   C676    1.418   .     A
C674   C682    1.488   .     S
C675   C693    1.408   .     A
C675   C684    1.478   .     S
C675   C694    1.418   .     A
C676   C692    1.408   .     A
C677   C683    1.483   .     S
C677   N708    1.378   .     A
C678   N707    1.378   .     A
C678   C685    1.483   .     S
C678   C1184   1.424   .     S
C679   N707    1.380   .     A
C679   C686    1.490   .     S
C679   C1181   1.424   .     S
C680   C687    1.490   .     S
C680   N708    1.380   .     A
C681   O728    1.222   .     D
C681   O710    1.399   .     S
C681   C694    1.488   .     S
C682   O712    1.399   .     S
C682   O711    1.222   .     D
C683   O713    1.222   .     D
C683   O714    1.387   .     S
C684   O720    1.304   .     A
C684   O723    1.313   .     A
C685   O715    1.222   .     D
C685   O716    1.387   .     S
C686   O718    1.399   .     S
C686   O717    1.217   .     D
C687   O719    1.217   .     D
C687   O721    1.399   .     S
C688   C690    1.444   .     S
C688   O726    1.307   .     A
C688   O724    1.293   .     A
C689   O727    1.307   .     A
C689   C691    1.444   .     S
C689   O725    1.293   .     A
C690   C803    1.356   1_455 S
C690   Cl807   1.772   1_455 S
C691   C746    1.356   .     S
C691   Cl752   1.772   .     S
C692   Cl697   1.777   .     S
C693   Cl698   1.777   .     S
C693   C842    1.399   .     S
C694   C860    1.399   .     S
Cl695  C746    1.772   .     S
Cl696  C803    1.772   1_455 S
Cu699  O709    1.982   .     S
Cu699  O723    1.971   .     S
Cu699  O727    1.980   .     S
Cu699  O724    1.980   .     S
Cu699  Cu700   2.713   .     S
Cu699  N707    2.039   .     S
Cu700  O725    1.980   .     S
Cu700  O722    1.971   .     S
Cu700  N708    2.039   .     S
Cu700  O726    1.980   .     S
Cu700  O720    1.982   .     S
H701   O710    1.014   .     S
H702   O712    1.014   .     S
H703   O714    1.014   .     S
H704   O716    1.014   .     S
H705   O718    1.014   .     S
H706   O721    1.014   .     S
C729   O765    1.304   .     A
C729   O778    1.313   .     A
C729   C732    1.478   .     S
C730   C732    1.418   .     A
C730   C738    1.488   .     S
C731   C749    1.408   .     A
C731   C740    1.478   .     S
C731   C750    1.418   .     A
C732   C748    1.408   .     A
C733   C739    1.483   .     S
C733   N764    1.378   .     A
C734   N763    1.378   .     A
C734   C741    1.483   .     S
C734   C1240   1.424   .     S
C735   N763    1.380   .     A
C735   C742    1.490   .     S
C735   C1237   1.424   .     S
C736   C743    1.490   .     S
C736   N764    1.380   .     A
C737   O784    1.222   .     D
C737   O766    1.399   .     S
C737   C750    1.488   .     S
C738   O768    1.399   .     S
C738   O767    1.222   .     D
C739   O769    1.222   .     D
C739   O770    1.387   .     S
C740   O776    1.304   .     A
C740   O779    1.313   .     A
C741   O771    1.222   .     D
C741   O772    1.387   .     S
C742   O774    1.399   .     S
C742   O773    1.217   .     D
C743   O775    1.217   .     D
C743   O777    1.399   .     S
C744   C746    1.444   .     S
C744   O782    1.307   .     A
C744   O780    1.293   .     A
C745   O783    1.307   .     A
C745   C747    1.444   .     S
C745   O781    1.293   .     A
C747   C802    1.356   .     S
C747   Cl808   1.772   .     S
C748   Cl753   1.777   .     S
C749   Cl754   1.777   .     S
C749   C898    1.399   .     S
C750   C916    1.399   .     S
Cl751  C802    1.772   .     S
Cu755  O765    1.982   .     S
Cu755  O779    1.971   .     S
Cu755  O783    1.980   .     S
Cu755  O780    1.980   .     S
Cu755  Cu756   2.713   .     S
Cu755  N763    2.039   .     S
Cu756  O781    1.980   .     S
Cu756  O778    1.971   .     S
Cu756  N764    2.039   .     S
Cu756  O782    1.980   .     S
Cu756  O776    1.982   .     S
H757   O766    1.014   .     S
H758   O768    1.014   .     S
H759   O770    1.014   .     S
H760   O772    1.014   .     S
H761   O774    1.014   .     S
H762   O777    1.014   .     S
C785   O821    1.304   .     A
C785   O834    1.313   .     A
C785   C788    1.478   .     S
C786   C788    1.418   .     A
C786   C794    1.488   .     S
C787   C805    1.408   .     A
C787   C796    1.478   .     S
C787   C806    1.418   .     A
C788   C804    1.408   .     A
C789   C795    1.483   .     S
C789   N820    1.378   .     A
C790   N819    1.378   .     A
C790   C797    1.483   .     S
C790   C1296   1.424   .     S
C791   N819    1.380   .     A
C791   C798    1.490   .     S
C791   C1293   1.424   .     S
C792   C799    1.490   .     S
C792   N820    1.380   .     A
C793   O840    1.222   .     D
C793   O822    1.399   .     S
C793   C806    1.488   .     S
C794   O824    1.399   .     S
C794   O823    1.222   .     D
C795   O825    1.222   .     D
C795   O826    1.387   .     S
C796   O832    1.304   .     A
C796   O835    1.313   .     A
C797   O827    1.222   .     D
C797   O828    1.387   .     S
C798   O830    1.399   .     S
C798   O829    1.217   .     D
C799   O831    1.217   .     D
C799   O833    1.399   .     S
C800   C802    1.444   .     S
C800   O838    1.307   .     A
C800   O836    1.293   .     A
C801   O839    1.307   .     A
C801   C803    1.444   .     S
C801   O837    1.293   .     A
C803   C690    1.356   1_655 S
C803   Cl696   1.772   1_655 S
C804   Cl809   1.777   .     S
C805   Cl810   1.777   .     S
C805   C954    1.399   .     S
C806   C972    1.399   .     S
Cl807  C690    1.772   1_655 S
Cu811  O821    1.982   .     S
Cu811  O835    1.971   .     S
Cu811  O839    1.980   .     S
Cu811  O836    1.980   .     S
Cu811  Cu812   2.713   .     S
Cu811  N819    2.039   .     S
Cu812  O837    1.980   .     S
Cu812  O834    1.971   .     S
Cu812  N820    2.039   .     S
Cu812  O838    1.980   .     S
Cu812  O832    1.982   .     S
H813   O822    1.014   .     S
H814   O824    1.014   .     S
H815   O826    1.014   .     S
H816   O828    1.014   .     S
H817   O830    1.014   .     S
H818   O833    1.014   .     S
C841   O877    1.304   .     A
C841   O890    1.313   .     A
C841   C844    1.478   .     S
C842   C844    1.418   .     A
C842   C850    1.488   .     S
C843   C861    1.408   .     A
C843   C852    1.478   .     S
C843   C862    1.418   .     A
C844   C860    1.408   .     A
C845   C851    1.483   .     S
C845   N876    1.378   .     A
C846   N875    1.378   .     A
C846   C853    1.483   .     S
C846   C1352   1.424   .     S
C847   N875    1.380   .     A
C847   C854    1.490   .     S
C847   C1349   1.424   .     S
C848   C855    1.490   .     S
C848   N876    1.380   .     A
C849   O896    1.222   .     D
C849   O878    1.399   .     S
C849   C862    1.488   .     S
C850   O880    1.399   .     S
C850   O879    1.222   .     D
C851   O881    1.222   .     D
C851   O882    1.387   .     S
C852   O888    1.304   .     A
C852   O891    1.313   .     A
C853   O883    1.222   .     D
C853   O884    1.387   .     S
C854   O886    1.399   .     S
C854   O885    1.217   .     D
C855   O887    1.217   .     D
C855   O889    1.399   .     S
C856   C858    1.444   .     S
C856   O894    1.307   .     A
C856   O892    1.293   .     A
C857   O895    1.307   .     A
C857   C859    1.444   .     S
C857   O893    1.293   .     A
C858   C971    1.356   1_455 S
C858   Cl975   1.772   1_455 S
C859   C914    1.356   .     S
C859   Cl920   1.772   .     S
C860   Cl865   1.777   .     S
C861   Cl866   1.777   .     S
C861   C506    1.399   1_565 S
C862   C524    1.399   1_565 S
Cl863  C914    1.772   .     S
Cl864  C971    1.772   1_455 S
Cu867  O877    1.982   .     S
Cu867  O891    1.971   .     S
Cu867  O895    1.980   .     S
Cu867  O892    1.980   .     S
Cu867  Cu868   2.713   .     S
Cu867  N875    2.039   .     S
Cu868  O893    1.980   .     S
Cu868  O890    1.971   .     S
Cu868  N876    2.039   .     S
Cu868  O894    1.980   .     S
Cu868  O888    1.982   .     S
H869   O878    1.014   .     S
H870   O880    1.014   .     S
H871   O882    1.014   .     S
H872   O884    1.014   .     S
H873   O886    1.014   .     S
H874   O889    1.014   .     S
C897   O933    1.304   .     A
C897   O946    1.313   .     A
C897   C900    1.478   .     S
C898   C900    1.418   .     A
C898   C906    1.488   .     S
C899   C917    1.408   .     A
C899   C908    1.478   .     S
C899   C918    1.418   .     A
C900   C916    1.408   .     A
C901   C907    1.483   .     S
C901   N932    1.378   .     A
C902   N931    1.378   .     A
C902   C909    1.483   .     S
C902   C1408   1.424   .     S
C903   N931    1.380   .     A
C903   C910    1.490   .     S
C903   C1405   1.424   .     S
C904   C911    1.490   .     S
C904   N932    1.380   .     A
C905   O952    1.222   .     D
C905   O934    1.399   .     S
C905   C918    1.488   .     S
C906   O936    1.399   .     S
C906   O935    1.222   .     D
C907   O937    1.222   .     D
C907   O938    1.387   .     S
C908   O944    1.304   .     A
C908   O947    1.313   .     A
C909   O939    1.222   .     D
C909   O940    1.387   .     S
C910   O942    1.399   .     S
C910   O941    1.217   .     D
C911   O943    1.217   .     D
C911   O945    1.399   .     S
C912   C914    1.444   .     S
C912   O950    1.307   .     A
C912   O948    1.293   .     A
C913   O951    1.307   .     A
C913   C915    1.444   .     S
C913   O949    1.293   .     A
C915   C970    1.356   .     S
C915   Cl976   1.772   .     S
C916   Cl921   1.777   .     S
C917   Cl922   1.777   .     S
C917   C562    1.399   1_565 S
C918   C580    1.399   1_565 S
Cl919  C970    1.772   .     S
Cu923  O933    1.982   .     S
Cu923  O947    1.971   .     S
Cu923  O951    1.980   .     S
Cu923  O948    1.980   .     S
Cu923  Cu924   2.713   .     S
Cu923  N931    2.039   .     S
Cu924  O949    1.980   .     S
Cu924  O946    1.971   .     S
Cu924  N932    2.039   .     S
Cu924  O950    1.980   .     S
Cu924  O944    1.982   .     S
H925   O934    1.014   .     S
H926   O936    1.014   .     S
H927   O938    1.014   .     S
H928   O940    1.014   .     S
H929   O942    1.014   .     S
H930   O945    1.014   .     S
C953   O989    1.304   .     A
C953   O1002   1.313   .     A
C953   C956    1.478   .     S
C954   C956    1.418   .     A
C954   C962    1.488   .     S
C955   C973    1.408   .     A
C955   C964    1.478   .     S
C955   C974    1.418   .     A
C956   C972    1.408   .     A
C957   C963    1.483   .     S
C957   N988    1.378   .     A
C958   N987    1.378   .     A
C958   C965    1.483   .     S
C958   C1464   1.424   .     S
C959   N987    1.380   .     A
C959   C966    1.490   .     S
C959   C1461   1.424   .     S
C960   C967    1.490   .     S
C960   N988    1.380   .     A
C961   O1008   1.222   .     D
C961   O990    1.399   .     S
C961   C974    1.488   .     S
C962   O992    1.399   .     S
C962   O991    1.222   .     D
C963   O993    1.222   .     D
C963   O994    1.387   .     S
C964   O1000   1.304   .     A
C964   O1003   1.313   .     A
C965   O995    1.222   .     D
C965   O996    1.387   .     S
C966   O998    1.399   .     S
C966   O997    1.217   .     D
C967   O999    1.217   .     D
C967   O1001   1.399   .     S
C968   C970    1.444   .     S
C968   O1006   1.307   .     A
C968   O1004   1.293   .     A
C969   O1007   1.307   .     A
C969   C971    1.444   .     S
C969   O1005   1.293   .     A
C971   C858    1.356   1_655 S
C971   Cl864   1.772   1_655 S
C972   Cl977   1.777   .     S
C973   Cl978   1.777   .     S
C973   C618    1.399   1_565 S
C974   C636    1.399   1_565 S
Cl975  C858    1.772   1_655 S
Cu979  O989    1.982   .     S
Cu979  O1003   1.971   .     S
Cu979  O1007   1.980   .     S
Cu979  O1004   1.980   .     S
Cu979  Cu980   2.713   .     S
Cu979  N987    2.039   .     S
Cu980  O1005   1.980   .     S
Cu980  O1002   1.971   .     S
Cu980  N988    2.039   .     S
Cu980  O1006   1.980   .     S
Cu980  O1000   1.982   .     S
H981   O990    1.014   .     S
H982   O992    1.014   .     S
H983   O994    1.014   .     S
H984   O996    1.014   .     S
H985   O998    1.014   .     S
H986   O1001   1.014   .     S
C1009  O1045   1.304   .     A
C1009  O1058   1.313   .     A
C1009  C1012   1.478   .     S
C1010  C1012   1.418   .     A
C1010  C1018   1.488   .     S
C1010  C1365   1.399   1_545 S
C1011  C1029   1.408   .     A
C1011  C1020   1.478   .     S
C1011  C1030   1.418   .     A
C1012  C1028   1.408   .     A
C1013  C1019   1.483   .     S
C1013  N1044   1.378   .     A
C1014  N1043   1.378   .     A
C1014  C1021   1.483   .     S
C1014  C8      1.424   1_556 S
C1015  N1043   1.380   .     A
C1015  C1022   1.490   .     S
C1015  C5      1.424   1_556 S
C1016  C1023   1.490   .     S
C1016  N1044   1.380   .     A
C1017  O1064   1.222   .     D
C1017  O1046   1.399   .     S
C1017  C1030   1.488   .     S
C1018  O1048   1.399   .     S
C1018  O1047   1.222   .     D
C1019  O1049   1.222   .     D
C1019  O1050   1.387   .     S
C1020  O1056   1.304   .     A
C1020  O1059   1.313   .     A
C1021  O1051   1.222   .     D
C1021  O1052   1.387   .     S
C1022  O1054   1.399   .     S
C1022  O1053   1.217   .     D
C1023  O1055   1.217   .     D
C1023  O1057   1.399   .     S
C1024  C1026   1.444   .     S
C1024  O1062   1.307   .     A
C1024  O1060   1.293   .     A
C1025  O1063   1.307   .     A
C1025  C1027   1.444   .     S
C1025  O1061   1.293   .     A
C1026  C1139   1.356   1_455 S
C1026  Cl1143  1.772   1_455 S
C1027  C1082   1.356   .     S
C1027  Cl1088  1.772   .     S
C1028  Cl1033  1.777   .     S
C1028  C1366   1.399   1_545 S
C1029  Cl1034  1.777   .     S
C1029  C1178   1.399   .     S
C1030  C1196   1.399   .     S
Cl1031 C1082   1.772   .     S
Cl1032 C1139   1.772   1_455 S
Cu1035 O1045   1.982   .     S
Cu1035 O1059   1.971   .     S
Cu1035 O1063   1.980   .     S
Cu1035 O1060   1.980   .     S
Cu1035 Cu1036  2.713   .     S
Cu1035 N1043   2.039   .     S
Cu1036 O1061   1.980   .     S
Cu1036 O1058   1.971   .     S
Cu1036 N1044   2.039   .     S
Cu1036 O1062   1.980   .     S
Cu1036 O1056   1.982   .     S
H1037  O1046   1.014   .     S
H1038  O1048   1.014   .     S
H1039  O1050   1.014   .     S
H1040  O1052   1.014   .     S
H1041  O1054   1.014   .     S
H1042  O1057   1.014   .     S
C1065  O1101   1.304   .     A
C1065  O1114   1.313   .     A
C1065  C1068   1.478   .     S
C1066  C1068   1.418   .     A
C1066  C1074   1.488   .     S
C1066  C1421   1.399   1_545 S
C1067  C1085   1.408   .     A
C1067  C1076   1.478   .     S
C1067  C1086   1.418   .     A
C1068  C1084   1.408   .     A
C1069  C1075   1.483   .     S
C1069  N1100   1.378   .     A
C1070  N1099   1.378   .     A
C1070  C1077   1.483   .     S
C1070  C64     1.424   1_556 S
C1071  N1099   1.380   .     A
C1071  C1078   1.490   .     S
C1071  C61     1.424   1_556 S
C1072  C1079   1.490   .     S
C1072  N1100   1.380   .     A
C1073  O1120   1.222   .     D
C1073  O1102   1.399   .     S
C1073  C1086   1.488   .     S
C1074  O1104   1.399   .     S
C1074  O1103   1.222   .     D
C1075  O1105   1.222   .     D
C1075  O1106   1.387   .     S
C1076  O1112   1.304   .     A
C1076  O1115   1.313   .     A
C1077  O1107   1.222   .     D
C1077  O1108   1.387   .     S
C1078  O1110   1.399   .     S
C1078  O1109   1.217   .     D
C1079  O1111   1.217   .     D
C1079  O1113   1.399   .     S
C1080  C1082   1.444   .     S
C1080  O1118   1.307   .     A
C1080  O1116   1.293   .     A
C1081  O1119   1.307   .     A
C1081  C1083   1.444   .     S
C1081  O1117   1.293   .     A
C1083  C1138   1.356   .     S
C1083  Cl1144  1.772   .     S
C1084  Cl1089  1.777   .     S
C1084  C1422   1.399   1_545 S
C1085  Cl1090  1.777   .     S
C1085  C1234   1.399   .     S
C1086  C1252   1.399   .     S
Cl1087 C1138   1.772   .     S
Cu1091 O1101   1.982   .     S
Cu1091 O1115   1.971   .     S
Cu1091 O1119   1.980   .     S
Cu1091 O1116   1.980   .     S
Cu1091 Cu1092  2.713   .     S
Cu1091 N1099   2.039   .     S
Cu1092 O1117   1.980   .     S
Cu1092 O1114   1.971   .     S
Cu1092 N1100   2.039   .     S
Cu1092 O1118   1.980   .     S
Cu1092 O1112   1.982   .     S
H1093  O1102   1.014   .     S
H1094  O1104   1.014   .     S
H1095  O1106   1.014   .     S
H1096  O1108   1.014   .     S
H1097  O1110   1.014   .     S
H1098  O1113   1.014   .     S
C1121  O1157   1.304   .     A
C1121  O1170   1.313   .     A
C1121  C1124   1.478   .     S
C1122  C1124   1.418   .     A
C1122  C1130   1.488   .     S
C1122  C1477   1.399   1_545 S
C1123  C1141   1.408   .     A
C1123  C1132   1.478   .     S
C1123  C1142   1.418   .     A
C1124  C1140   1.408   .     A
C1125  C1131   1.483   .     S
C1125  N1156   1.378   .     A
C1126  N1155   1.378   .     A
C1126  C1133   1.483   .     S
C1126  C120    1.424   1_556 S
C1127  N1155   1.380   .     A
C1127  C1134   1.490   .     S
C1127  C117    1.424   1_556 S
C1128  C1135   1.490   .     S
C1128  N1156   1.380   .     A
C1129  O1176   1.222   .     D
C1129  O1158   1.399   .     S
C1129  C1142   1.488   .     S
C1130  O1160   1.399   .     S
C1130  O1159   1.222   .     D
C1131  O1161   1.222   .     D
C1131  O1162   1.387   .     S
C1132  O1168   1.304   .     A
C1132  O1171   1.313   .     A
C1133  O1163   1.222   .     D
C1133  O1164   1.387   .     S
C1134  O1166   1.399   .     S
C1134  O1165   1.217   .     D
C1135  O1167   1.217   .     D
C1135  O1169   1.399   .     S
C1136  C1138   1.444   .     S
C1136  O1174   1.307   .     A
C1136  O1172   1.293   .     A
C1137  O1175   1.307   .     A
C1137  C1139   1.444   .     S
C1137  O1173   1.293   .     A
C1139  C1026   1.356   1_655 S
C1139  Cl1032  1.772   1_655 S
C1140  Cl1145  1.777   .     S
C1140  C1478   1.399   1_545 S
C1141  Cl1146  1.777   .     S
C1141  C1290   1.399   .     S
C1142  C1308   1.399   .     S
Cl1143 C1026   1.772   1_655 S
Cu1147 O1157   1.982   .     S
Cu1147 O1171   1.971   .     S
Cu1147 O1175   1.980   .     S
Cu1147 O1172   1.980   .     S
Cu1147 Cu1148  2.713   .     S
Cu1147 N1155   2.039   .     S
Cu1148 O1173   1.980   .     S
Cu1148 O1170   1.971   .     S
Cu1148 N1156   2.039   .     S
Cu1148 O1174   1.980   .     S
Cu1148 O1168   1.982   .     S
H1149  O1158   1.014   .     S
H1150  O1160   1.014   .     S
H1151  O1162   1.014   .     S
H1152  O1164   1.014   .     S
H1153  O1166   1.014   .     S
H1154  O1169   1.014   .     S
C1177  O1213   1.304   .     A
C1177  O1226   1.313   .     A
C1177  C1180   1.478   .     S
C1178  C1180   1.418   .     A
C1178  C1186   1.488   .     S
C1179  C1197   1.408   .     A
C1179  C1188   1.478   .     S
C1179  C1198   1.418   .     A
C1180  C1196   1.408   .     A
C1181  C1187   1.483   .     S
C1181  N1212   1.378   .     A
C1182  N1211   1.378   .     A
C1182  C1189   1.483   .     S
C1182  C176    1.424   1_556 S
C1183  N1211   1.380   .     A
C1183  C1190   1.490   .     S
C1183  C173    1.424   1_556 S
C1184  C1191   1.490   .     S
C1184  N1212   1.380   .     A
C1185  O1232   1.222   .     D
C1185  O1214   1.399   .     S
C1185  C1198   1.488   .     S
C1186  O1216   1.399   .     S
C1186  O1215   1.222   .     D
C1187  O1217   1.222   .     D
C1187  O1218   1.387   .     S
C1188  O1224   1.304   .     A
C1188  O1227   1.313   .     A
C1189  O1219   1.222   .     D
C1189  O1220   1.387   .     S
C1190  O1222   1.399   .     S
C1190  O1221   1.217   .     D
C1191  O1223   1.217   .     D
C1191  O1225   1.399   .     S
C1192  C1194   1.444   .     S
C1192  O1230   1.307   .     A
C1192  O1228   1.293   .     A
C1193  O1231   1.307   .     A
C1193  C1195   1.444   .     S
C1193  O1229   1.293   .     A
C1194  C1307   1.356   1_455 S
C1194  Cl1311  1.772   1_455 S
C1195  C1250   1.356   .     S
C1195  Cl1256  1.772   .     S
C1196  Cl1201  1.777   .     S
C1197  Cl1202  1.777   .     S
C1197  C1346   1.399   .     S
C1198  C1364   1.399   .     S
Cl1199 C1250   1.772   .     S
Cl1200 C1307   1.772   1_455 S
Cu1203 O1213   1.982   .     S
Cu1203 O1227   1.971   .     S
Cu1203 O1231   1.980   .     S
Cu1203 O1228   1.980   .     S
Cu1203 Cu1204  2.713   .     S
Cu1203 N1211   2.039   .     S
Cu1204 O1229   1.980   .     S
Cu1204 O1226   1.971   .     S
Cu1204 N1212   2.039   .     S
Cu1204 O1230   1.980   .     S
Cu1204 O1224   1.982   .     S
H1205  O1214   1.014   .     S
H1206  O1216   1.014   .     S
H1207  O1218   1.014   .     S
H1208  O1220   1.014   .     S
H1209  O1222   1.014   .     S
H1210  O1225   1.014   .     S
C1233  O1269   1.304   .     A
C1233  O1282   1.313   .     A
C1233  C1236   1.478   .     S
C1234  C1236   1.418   .     A
C1234  C1242   1.488   .     S
C1235  C1253   1.408   .     A
C1235  C1244   1.478   .     S
C1235  C1254   1.418   .     A
C1236  C1252   1.408   .     A
C1237  C1243   1.483   .     S
C1237  N1268   1.378   .     A
C1238  N1267   1.378   .     A
C1238  C1245   1.483   .     S
C1238  C232    1.424   1_556 S
C1239  N1267   1.380   .     A
C1239  C1246   1.490   .     S
C1239  C229    1.424   1_556 S
C1240  C1247   1.490   .     S
C1240  N1268   1.380   .     A
C1241  O1288   1.222   .     D
C1241  O1270   1.399   .     S
C1241  C1254   1.488   .     S
C1242  O1272   1.399   .     S
C1242  O1271   1.222   .     D
C1243  O1273   1.222   .     D
C1243  O1274   1.387   .     S
C1244  O1280   1.304   .     A
C1244  O1283   1.313   .     A
C1245  O1275   1.222   .     D
C1245  O1276   1.387   .     S
C1246  O1278   1.399   .     S
C1246  O1277   1.217   .     D
C1247  O1279   1.217   .     D
C1247  O1281   1.399   .     S
C1248  C1250   1.444   .     S
C1248  O1286   1.307   .     A
C1248  O1284   1.293   .     A
C1249  O1287   1.307   .     A
C1249  C1251   1.444   .     S
C1249  O1285   1.293   .     A
C1251  C1306   1.356   .     S
C1251  Cl1312  1.772   .     S
C1252  Cl1257  1.777   .     S
C1253  Cl1258  1.777   .     S
C1253  C1402   1.399   .     S
C1254  C1420   1.399   .     S
Cl1255 C1306   1.772   .     S
Cu1259 O1269   1.982   .     S
Cu1259 O1283   1.971   .     S
Cu1259 O1287   1.980   .     S
Cu1259 O1284   1.980   .     S
Cu1259 Cu1260  2.713   .     S
Cu1259 N1267   2.039   .     S
Cu1260 O1285   1.980   .     S
Cu1260 O1282   1.971   .     S
Cu1260 N1268   2.039   .     S
Cu1260 O1286   1.980   .     S
Cu1260 O1280   1.982   .     S
H1261  O1270   1.014   .     S
H1262  O1272   1.014   .     S
H1263  O1274   1.014   .     S
H1264  O1276   1.014   .     S
H1265  O1278   1.014   .     S
H1266  O1281   1.014   .     S
C1289  O1325   1.304   .     A
C1289  O1338   1.313   .     A
C1289  C1292   1.478   .     S
C1290  C1292   1.418   .     A
C1290  C1298   1.488   .     S
C1291  C1309   1.408   .     A
C1291  C1300   1.478   .     S
C1291  C1310   1.418   .     A
C1292  C1308   1.408   .     A
C1293  C1299   1.483   .     S
C1293  N1324   1.378   .     A
C1294  N1323   1.378   .     A
C1294  C1301   1.483   .     S
C1294  C288    1.424   1_556 S
C1295  N1323   1.380   .     A
C1295  C1302   1.490   .     S
C1295  C285    1.424   1_556 S
C1296  C1303   1.490   .     S
C1296  N1324   1.380   .     A
C1297  O1344   1.222   .     D
C1297  O1326   1.399   .     S
C1297  C1310   1.488   .     S
C1298  O1328   1.399   .     S
C1298  O1327   1.222   .     D
C1299  O1329   1.222   .     D
C1299  O1330   1.387   .     S
C1300  O1336   1.304   .     A
C1300  O1339   1.313   .     A
C1301  O1331   1.222   .     D
C1301  O1332   1.387   .     S
C1302  O1334   1.399   .     S
C1302  O1333   1.217   .     D
C1303  O1335   1.217   .     D
C1303  O1337   1.399   .     S
C1304  C1306   1.444   .     S
C1304  O1342   1.307   .     A
C1304  O1340   1.293   .     A
C1305  O1343   1.307   .     A
C1305  C1307   1.444   .     S
C1305  O1341   1.293   .     A
C1307  C1194   1.356   1_655 S
C1307  Cl1200  1.772   1_655 S
C1308  Cl1313  1.777   .     S
C1309  Cl1314  1.777   .     S
C1309  C1458   1.399   .     S
C1310  C1476   1.399   .     S
Cl1311 C1194   1.772   1_655 S
Cu1315 O1325   1.982   .     S
Cu1315 O1339   1.971   .     S
Cu1315 O1343   1.980   .     S
Cu1315 O1340   1.980   .     S
Cu1315 Cu1316  2.713   .     S
Cu1315 N1323   2.039   .     S
Cu1316 O1341   1.980   .     S
Cu1316 O1338   1.971   .     S
Cu1316 N1324   2.039   .     S
Cu1316 O1342   1.980   .     S
Cu1316 O1336   1.982   .     S
H1317  O1326   1.014   .     S
H1318  O1328   1.014   .     S
H1319  O1330   1.014   .     S
H1320  O1332   1.014   .     S
H1321  O1334   1.014   .     S
H1322  O1337   1.014   .     S
C1345  O1381   1.304   .     A
C1345  O1394   1.313   .     A
C1345  C1348   1.478   .     S
C1346  C1348   1.418   .     A
C1346  C1354   1.488   .     S
C1347  C1365   1.408   .     A
C1347  C1356   1.478   .     S
C1347  C1366   1.418   .     A
C1348  C1364   1.408   .     A
C1349  C1355   1.483   .     S
C1349  N1380   1.378   .     A
C1350  N1379   1.378   .     A
C1350  C1357   1.483   .     S
C1350  C344    1.424   1_556 S
C1351  N1379   1.380   .     A
C1351  C1358   1.490   .     S
C1351  C341    1.424   1_556 S
C1352  C1359   1.490   .     S
C1352  N1380   1.380   .     A
C1353  O1400   1.222   .     D
C1353  O1382   1.399   .     S
C1353  C1366   1.488   .     S
C1354  O1384   1.399   .     S
C1354  O1383   1.222   .     D
C1355  O1385   1.222   .     D
C1355  O1386   1.387   .     S
C1356  O1392   1.304   .     A
C1356  O1395   1.313   .     A
C1357  O1387   1.222   .     D
C1357  O1388   1.387   .     S
C1358  O1390   1.399   .     S
C1358  O1389   1.217   .     D
C1359  O1391   1.217   .     D
C1359  O1393   1.399   .     S
C1360  C1362   1.444   .     S
C1360  O1398   1.307   .     A
C1360  O1396   1.293   .     A
C1361  O1399   1.307   .     A
C1361  C1363   1.444   .     S
C1361  O1397   1.293   .     A
C1362  C1475   1.356   1_455 S
C1362  Cl1479  1.772   1_455 S
C1363  C1418   1.356   .     S
C1363  Cl1424  1.772   .     S
C1364  Cl1369  1.777   .     S
C1365  Cl1370  1.777   .     S
C1365  C1010   1.399   1_565 S
C1366  C1028   1.399   1_565 S
Cl1367 C1418   1.772   .     S
Cl1368 C1475   1.772   1_455 S
Cu1371 O1381   1.982   .     S
Cu1371 O1395   1.971   .     S
Cu1371 O1399   1.980   .     S
Cu1371 O1396   1.980   .     S
Cu1371 Cu1372  2.713   .     S
Cu1371 N1379   2.039   .     S
Cu1372 O1397   1.980   .     S
Cu1372 O1394   1.971   .     S
Cu1372 N1380   2.039   .     S
Cu1372 O1398   1.980   .     S
Cu1372 O1392   1.982   .     S
H1373  O1382   1.014   .     S
H1374  O1384   1.014   .     S
H1375  O1386   1.014   .     S
H1376  O1388   1.014   .     S
H1377  O1390   1.014   .     S
H1378  O1393   1.014   .     S
C1401  O1437   1.304   .     A
C1401  O1450   1.313   .     A
C1401  C1404   1.478   .     S
C1402  C1404   1.418   .     A
C1402  C1410   1.488   .     S
C1403  C1421   1.408   .     A
C1403  C1412   1.478   .     S
C1403  C1422   1.418   .     A
C1404  C1420   1.408   .     A
C1405  C1411   1.483   .     S
C1405  N1436   1.378   .     A
C1406  N1435   1.378   .     A
C1406  C1413   1.483   .     S
C1406  C400    1.424   1_556 S
C1407  N1435   1.380   .     A
C1407  C1414   1.490   .     S
C1407  C397    1.424   1_556 S
C1408  C1415   1.490   .     S
C1408  N1436   1.380   .     A
C1409  O1456   1.222   .     D
C1409  O1438   1.399   .     S
C1409  C1422   1.488   .     S
C1410  O1440   1.399   .     S
C1410  O1439   1.222   .     D
C1411  O1441   1.222   .     D
C1411  O1442   1.387   .     S
C1412  O1448   1.304   .     A
C1412  O1451   1.313   .     A
C1413  O1443   1.222   .     D
C1413  O1444   1.387   .     S
C1414  O1446   1.399   .     S
C1414  O1445   1.217   .     D
C1415  O1447   1.217   .     D
C1415  O1449   1.399   .     S
C1416  C1418   1.444   .     S
C1416  O1454   1.307   .     A
C1416  O1452   1.293   .     A
C1417  O1455   1.307   .     A
C1417  C1419   1.444   .     S
C1417  O1453   1.293   .     A
C1419  C1474   1.356   .     S
C1419  Cl1480  1.772   .     S
C1420  Cl1425  1.777   .     S
C1421  Cl1426  1.777   .     S
C1421  C1066   1.399   1_565 S
C1422  C1084   1.399   1_565 S
Cl1423 C1474   1.772   .     S
Cu1427 O1437   1.982   .     S
Cu1427 O1451   1.971   .     S
Cu1427 O1455   1.980   .     S
Cu1427 O1452   1.980   .     S
Cu1427 Cu1428  2.713   .     S
Cu1427 N1435   2.039   .     S
Cu1428 O1453   1.980   .     S
Cu1428 O1450   1.971   .     S
Cu1428 N1436   2.039   .     S
Cu1428 O1454   1.980   .     S
Cu1428 O1448   1.982   .     S
H1429  O1438   1.014   .     S
H1430  O1440   1.014   .     S
H1431  O1442   1.014   .     S
H1432  O1444   1.014   .     S
H1433  O1446   1.014   .     S
H1434  O1449   1.014   .     S
C1457  O1493   1.304   .     A
C1457  O1506   1.313   .     A
C1457  C1460   1.478   .     S
C1458  C1460   1.418   .     A
C1458  C1466   1.488   .     S
C1459  C1477   1.408   .     A
C1459  C1468   1.478   .     S
C1459  C1478   1.418   .     A
C1460  C1476   1.408   .     A
C1461  C1467   1.483   .     S
C1461  N1492   1.378   .     A
C1462  N1491   1.378   .     A
C1462  C1469   1.483   .     S
C1462  C456    1.424   1_556 S
C1463  N1491   1.380   .     A
C1463  C1470   1.490   .     S
C1463  C453    1.424   1_556 S
C1464  C1471   1.490   .     S
C1464  N1492   1.380   .     A
C1465  O1512   1.222   .     D
C1465  O1494   1.399   .     S
C1465  C1478   1.488   .     S
C1466  O1496   1.399   .     S
C1466  O1495   1.222   .     D
C1467  O1497   1.222   .     D
C1467  O1498   1.387   .     S
C1468  O1504   1.304   .     A
C1468  O1507   1.313   .     A
C1469  O1499   1.222   .     D
C1469  O1500   1.387   .     S
C1470  O1502   1.399   .     S
C1470  O1501   1.217   .     D
C1471  O1503   1.217   .     D
C1471  O1505   1.399   .     S
C1472  C1474   1.444   .     S
C1472  O1510   1.307   .     A
C1472  O1508   1.293   .     A
C1473  O1511   1.307   .     A
C1473  C1475   1.444   .     S
C1473  O1509   1.293   .     A
C1475  C1362   1.356   1_655 S
C1475  Cl1368  1.772   1_655 S
C1476  Cl1481  1.777   .     S
C1477  Cl1482  1.777   .     S
C1477  C1122   1.399   1_565 S
C1478  C1140   1.399   1_565 S
Cl1479 C1362   1.772   1_655 S
Cu1483 O1493   1.982   .     S
Cu1483 O1507   1.971   .     S
Cu1483 O1511   1.980   .     S
Cu1483 O1508   1.980   .     S
Cu1483 Cu1484  2.713   .     S
Cu1483 N1491   2.039   .     S
Cu1484 O1509   1.980   .     S
Cu1484 O1506   1.971   .     S
Cu1484 N1492   2.039   .     S
Cu1484 O1510   1.980   .     S
Cu1484 O1504   1.982   .     S
H1485  O1494   1.014   .     S
H1486  O1496   1.014   .     S
H1487  O1498   1.014   .     S
H1488  O1500   1.014   .     S
H1489  O1502   1.014   .     S
H1490  O1505   1.014   .     S
