data_str_m2_o1_o5_pcu_sym.71
_audit_creation_date              2020-01-03
_audit_creation_method            'Materials Studio'
_symmetry_space_group_name_H-M    'P1'
_symmetry_Int_Tables_number       1
_symmetry_cell_setting            triclinic
loop_
_symmetry_equiv_pos_as_xyz
  x,y,z
_cell_length_a                    32.4644
_cell_length_b                    28.6003
_cell_length_c                    27.2207
_cell_angle_alpha                 90.0544
_cell_angle_beta                  90.2485
_cell_angle_gamma                 90.0557
loop_
_atom_site_label
_atom_site_type_symbol
_atom_site_fract_x
_atom_site_fract_y
_atom_site_fract_z
_atom_site_U_iso_or_equiv
_atom_site_adp_type
_atom_site_occupancy
C1     C     0.08751   0.16664   0.16652   0.00000  Uiso   1.00
C2     C     0.02137   0.19259   0.13053   0.00000  Uiso   1.00
C3     C     0.29049   0.16689   0.16707   0.00000  Uiso   1.00
C4     C     0.04280   0.16656   0.16645   0.00000  Uiso   1.00
C5     C     0.14094   0.02473   0.13623   0.00000  Uiso   1.00
C6     C     0.19240   0.30860   0.19710   0.00000  Uiso   1.00
C7     C     0.19238   0.02484   0.19711   0.00000  Uiso   1.00
C8     C     0.14096   0.30849   0.13621   0.00000  Uiso   1.00
C9     C     0.04511   0.11706   0.24246   0.00000  Uiso   1.00
C10    C     0.28823   0.21641   0.09099   0.00000  Uiso   1.00
C11    C     0.28925   0.11755   0.24374   0.00000  Uiso   1.00
C12    C     0.24581   0.16670   0.16681   0.00000  Uiso   1.00
C13    C     0.04409   0.21664   0.09050   0.00000  Uiso   1.00
C14    C     0.16679   0.16664   0.07355   0.00000  Uiso   1.00
C15    C     0.16673   0.16668   0.25979   0.00000  Uiso   1.00
C16    C     0.16686   0.16661   0.02184   0.00000  Uiso   1.00
C17    C     0.16684   0.16668   0.31148   0.00000  Uiso   1.00
C18    C     0.02175   0.14082   0.20272   0.00000  Uiso   1.00
C19    C     0.31153   0.19270   0.13087   0.00000  Uiso   1.00
C20    C     0.31191   0.14121   0.20333   0.00000  Uiso   1.00
Cu21   Cu    0.16667   0.21355   0.16667   0.00000  Uiso   1.00
Cu22   Cu    0.16667   0.11978   0.16667   0.00000  Uiso   1.00
H23    H     0.12032   0.04333   0.11182   0.00000  Uiso   1.00
H24    H     0.21303   0.29001   0.22150   0.00000  Uiso   1.00
H25    H     0.21294   0.04354   0.22155   0.00000  Uiso   1.00
H26    H     0.12041   0.28979   0.11174   0.00000  Uiso   1.00
H27    H     0.08088   0.12381   0.30273   0.00000  Uiso   1.00
H28    H     0.25162   0.20962   0.03145   0.00000  Uiso   1.00
H29    H     0.27818   0.05800   0.28105   0.00000  Uiso   1.00
H30    H     0.08402   0.21110   0.03436   0.00000  Uiso   1.00
N31    N     0.16667   0.28402   0.16667   0.00000  Uiso   1.00
N32    N     0.16667   0.04931   0.16667   0.00000  Uiso   1.00
O33    O     0.10655   0.20625   0.16666   0.00000  Uiso   1.00
O34    O     0.06605   0.14381   0.27754   0.00000  Uiso   1.00
O35    O     0.28796   0.25908   0.08849   0.00000  Uiso   1.00
O36    O     0.26610   0.18966   0.05696   0.00000  Uiso   1.00
O37    O     0.26511   0.13981   0.26896   0.00000  Uiso   1.00
O38    O     0.29532   0.06994   0.25265   0.00000  Uiso   1.00
O39    O     0.03974   0.25864   0.08403   0.00000  Uiso   1.00
O40    O     0.07060   0.19103   0.06047   0.00000  Uiso   1.00
O41    O     0.22679   0.12709   0.16667   0.00000  Uiso   1.00
O42    O     0.22679   0.20625   0.16667   0.00000  Uiso   1.00
O43    O     0.10655   0.12709   0.16666   0.00000  Uiso   1.00
O44    O     0.16667   0.20625   0.09613   0.00000  Uiso   1.00
O45    O     0.16667   0.12708   0.23720   0.00000  Uiso   1.00
O46    O     0.16667   0.20625   0.23720   0.00000  Uiso   1.00
O47    O     0.16667   0.12708   0.09613   0.00000  Uiso   1.00
O48    O     0.04663   0.07437   0.24381   0.00000  Uiso   1.00
C49    C     0.42084   0.16664   0.16652   0.00000  Uiso   1.00
C50    C     0.35470   0.19259   0.13053   0.00000  Uiso   1.00
C51    C     0.62382   0.16689   0.16707   0.00000  Uiso   1.00
C52    C     0.37614   0.16656   0.16645   0.00000  Uiso   1.00
C53    C     0.47428   0.02473   0.13623   0.00000  Uiso   1.00
C54    C     0.52573   0.30860   0.19710   0.00000  Uiso   1.00
C55    C     0.52571   0.02484   0.19711   0.00000  Uiso   1.00
C56    C     0.47430   0.30849   0.13621   0.00000  Uiso   1.00
C57    C     0.37844   0.11706   0.24246   0.00000  Uiso   1.00
C58    C     0.62157   0.21641   0.09099   0.00000  Uiso   1.00
C59    C     0.62258   0.11755   0.24374   0.00000  Uiso   1.00
C60    C     0.57914   0.16670   0.16681   0.00000  Uiso   1.00
C61    C     0.37742   0.21664   0.09050   0.00000  Uiso   1.00
C62    C     0.50012   0.16664   0.07355   0.00000  Uiso   1.00
C63    C     0.50007   0.16668   0.25979   0.00000  Uiso   1.00
C64    C     0.50019   0.16661   0.02184   0.00000  Uiso   1.00
C65    C     0.50018   0.16668   0.31148   0.00000  Uiso   1.00
C66    C     0.35508   0.14082   0.20272   0.00000  Uiso   1.00
C67    C     0.64487   0.19270   0.13087   0.00000  Uiso   1.00
C68    C     0.64524   0.14121   0.20333   0.00000  Uiso   1.00
Cu69   Cu    0.50000   0.21355   0.16667   0.00000  Uiso   1.00
Cu70   Cu    0.50000   0.11978   0.16667   0.00000  Uiso   1.00
H71    H     0.45365   0.04333   0.11182   0.00000  Uiso   1.00
H72    H     0.54636   0.29001   0.22150   0.00000  Uiso   1.00
H73    H     0.54628   0.04354   0.22155   0.00000  Uiso   1.00
H74    H     0.45374   0.28979   0.11174   0.00000  Uiso   1.00
H75    H     0.41421   0.12381   0.30273   0.00000  Uiso   1.00
H76    H     0.58496   0.20962   0.03145   0.00000  Uiso   1.00
H77    H     0.61151   0.05800   0.28105   0.00000  Uiso   1.00
H78    H     0.41736   0.21110   0.03436   0.00000  Uiso   1.00
N79    N     0.50000   0.28402   0.16667   0.00000  Uiso   1.00
N80    N     0.50000   0.04931   0.16667   0.00000  Uiso   1.00
O81    O     0.43988   0.20625   0.16666   0.00000  Uiso   1.00
O82    O     0.39938   0.14381   0.27754   0.00000  Uiso   1.00
O83    O     0.62129   0.25908   0.08849   0.00000  Uiso   1.00
O84    O     0.59944   0.18966   0.05696   0.00000  Uiso   1.00
O85    O     0.59845   0.13981   0.26896   0.00000  Uiso   1.00
O86    O     0.62866   0.06994   0.25265   0.00000  Uiso   1.00
O87    O     0.37307   0.25864   0.08403   0.00000  Uiso   1.00
O88    O     0.40393   0.19103   0.06047   0.00000  Uiso   1.00
O89    O     0.56012   0.12709   0.16667   0.00000  Uiso   1.00
O90    O     0.56012   0.20625   0.16667   0.00000  Uiso   1.00
O91    O     0.43988   0.12709   0.16666   0.00000  Uiso   1.00
O92    O     0.50000   0.20625   0.09613   0.00000  Uiso   1.00
O93    O     0.50000   0.12708   0.23720   0.00000  Uiso   1.00
O94    O     0.50000   0.20625   0.23720   0.00000  Uiso   1.00
O95    O     0.50000   0.12708   0.09613   0.00000  Uiso   1.00
O96    O     0.37996   0.07437   0.24381   0.00000  Uiso   1.00
C97    C     0.75417   0.16664   0.16652   0.00000  Uiso   1.00
C98    C     0.68804   0.19259   0.13053   0.00000  Uiso   1.00
C99    C     0.95715   0.16689   0.16707   0.00000  Uiso   1.00
C100   C     0.70947   0.16656   0.16645   0.00000  Uiso   1.00
C101   C     0.80761   0.02473   0.13623   0.00000  Uiso   1.00
C102   C     0.85906   0.30860   0.19710   0.00000  Uiso   1.00
C103   C     0.85904   0.02484   0.19711   0.00000  Uiso   1.00
C104   C     0.80763   0.30849   0.13621   0.00000  Uiso   1.00
C105   C     0.71177   0.11706   0.24246   0.00000  Uiso   1.00
C106   C     0.95490   0.21641   0.09099   0.00000  Uiso   1.00
C107   C     0.95592   0.11755   0.24374   0.00000  Uiso   1.00
C108   C     0.91248   0.16670   0.16681   0.00000  Uiso   1.00
C109   C     0.71075   0.21664   0.09050   0.00000  Uiso   1.00
C110   C     0.83346   0.16664   0.07355   0.00000  Uiso   1.00
C111   C     0.83340   0.16668   0.25979   0.00000  Uiso   1.00
C112   C     0.83352   0.16661   0.02184   0.00000  Uiso   1.00
C113   C     0.83351   0.16668   0.31148   0.00000  Uiso   1.00
C114   C     0.68841   0.14082   0.20272   0.00000  Uiso   1.00
C115   C     0.97820   0.19270   0.13087   0.00000  Uiso   1.00
C116   C     0.97857   0.14121   0.20333   0.00000  Uiso   1.00
Cu117  Cu    0.83333   0.21355   0.16667   0.00000  Uiso   1.00
Cu118  Cu    0.83333   0.11978   0.16667   0.00000  Uiso   1.00
H119   H     0.78698   0.04333   0.11182   0.00000  Uiso   1.00
H120   H     0.87969   0.29001   0.22150   0.00000  Uiso   1.00
H121   H     0.87961   0.04354   0.22155   0.00000  Uiso   1.00
H122   H     0.78708   0.28979   0.11174   0.00000  Uiso   1.00
H123   H     0.74755   0.12381   0.30273   0.00000  Uiso   1.00
H124   H     0.91829   0.20962   0.03145   0.00000  Uiso   1.00
H125   H     0.94484   0.05800   0.28105   0.00000  Uiso   1.00
H126   H     0.75069   0.21110   0.03436   0.00000  Uiso   1.00
N127   N     0.83333   0.28402   0.16667   0.00000  Uiso   1.00
N128   N     0.83333   0.04931   0.16667   0.00000  Uiso   1.00
O129   O     0.77321   0.20625   0.16666   0.00000  Uiso   1.00
O130   O     0.73271   0.14381   0.27754   0.00000  Uiso   1.00
O131   O     0.95463   0.25908   0.08849   0.00000  Uiso   1.00
O132   O     0.93277   0.18966   0.05696   0.00000  Uiso   1.00
O133   O     0.93178   0.13981   0.26896   0.00000  Uiso   1.00
O134   O     0.96199   0.06994   0.25265   0.00000  Uiso   1.00
O135   O     0.70641   0.25864   0.08403   0.00000  Uiso   1.00
O136   O     0.73726   0.19103   0.06047   0.00000  Uiso   1.00
O137   O     0.89345   0.12709   0.16667   0.00000  Uiso   1.00
O138   O     0.89345   0.20625   0.16667   0.00000  Uiso   1.00
O139   O     0.77321   0.12709   0.16666   0.00000  Uiso   1.00
O140   O     0.83333   0.20625   0.09613   0.00000  Uiso   1.00
O141   O     0.83333   0.12708   0.23720   0.00000  Uiso   1.00
O142   O     0.83333   0.20625   0.23720   0.00000  Uiso   1.00
O143   O     0.83333   0.12708   0.09613   0.00000  Uiso   1.00
O144   O     0.71330   0.07437   0.24381   0.00000  Uiso   1.00
C145   C     0.08751   0.49998   0.16652   0.00000  Uiso   1.00
C146   C     0.02137   0.52593   0.13053   0.00000  Uiso   1.00
C147   C     0.29049   0.50022   0.16707   0.00000  Uiso   1.00
C148   C     0.04280   0.49989   0.16645   0.00000  Uiso   1.00
C149   C     0.14094   0.35806   0.13623   0.00000  Uiso   1.00
C150   C     0.19240   0.64194   0.19710   0.00000  Uiso   1.00
C151   C     0.19238   0.35818   0.19711   0.00000  Uiso   1.00
C152   C     0.14096   0.64182   0.13621   0.00000  Uiso   1.00
C153   C     0.04511   0.45039   0.24246   0.00000  Uiso   1.00
C154   C     0.28823   0.54974   0.09099   0.00000  Uiso   1.00
C155   C     0.28925   0.45088   0.24374   0.00000  Uiso   1.00
C156   C     0.24581   0.50004   0.16681   0.00000  Uiso   1.00
C157   C     0.04409   0.54997   0.09050   0.00000  Uiso   1.00
C158   C     0.16679   0.49998   0.07355   0.00000  Uiso   1.00
C159   C     0.16673   0.50001   0.25979   0.00000  Uiso   1.00
C160   C     0.16686   0.49994   0.02184   0.00000  Uiso   1.00
C161   C     0.16684   0.50001   0.31148   0.00000  Uiso   1.00
C162   C     0.02175   0.47415   0.20272   0.00000  Uiso   1.00
C163   C     0.31153   0.52603   0.13087   0.00000  Uiso   1.00
C164   C     0.31191   0.47454   0.20333   0.00000  Uiso   1.00
Cu165  Cu    0.16667   0.54689   0.16667   0.00000  Uiso   1.00
Cu166  Cu    0.16667   0.45311   0.16667   0.00000  Uiso   1.00
H167   H     0.12032   0.37666   0.11182   0.00000  Uiso   1.00
H168   H     0.21303   0.62334   0.22150   0.00000  Uiso   1.00
H169   H     0.21294   0.37688   0.22155   0.00000  Uiso   1.00
H170   H     0.12041   0.62313   0.11174   0.00000  Uiso   1.00
H171   H     0.08088   0.45714   0.30273   0.00000  Uiso   1.00
H172   H     0.25162   0.54295   0.03145   0.00000  Uiso   1.00
H173   H     0.27818   0.39134   0.28105   0.00000  Uiso   1.00
H174   H     0.08402   0.54444   0.03436   0.00000  Uiso   1.00
N175   N     0.16667   0.61736   0.16667   0.00000  Uiso   1.00
N176   N     0.16667   0.38264   0.16667   0.00000  Uiso   1.00
O177   O     0.10655   0.53958   0.16666   0.00000  Uiso   1.00
O178   O     0.06605   0.47714   0.27754   0.00000  Uiso   1.00
O179   O     0.28796   0.59242   0.08849   0.00000  Uiso   1.00
O180   O     0.26610   0.52299   0.05696   0.00000  Uiso   1.00
O181   O     0.26511   0.47315   0.26896   0.00000  Uiso   1.00
O182   O     0.29532   0.40327   0.25265   0.00000  Uiso   1.00
O183   O     0.03974   0.59197   0.08403   0.00000  Uiso   1.00
O184   O     0.07060   0.52436   0.06047   0.00000  Uiso   1.00
O185   O     0.22679   0.46042   0.16667   0.00000  Uiso   1.00
O186   O     0.22679   0.53958   0.16667   0.00000  Uiso   1.00
O187   O     0.10655   0.46042   0.16666   0.00000  Uiso   1.00
O188   O     0.16667   0.53959   0.09613   0.00000  Uiso   1.00
O189   O     0.16667   0.46041   0.23720   0.00000  Uiso   1.00
O190   O     0.16667   0.53959   0.23720   0.00000  Uiso   1.00
O191   O     0.16667   0.46041   0.09613   0.00000  Uiso   1.00
O192   O     0.04663   0.40771   0.24381   0.00000  Uiso   1.00
C193   C     0.42084   0.49998   0.16652   0.00000  Uiso   1.00
C194   C     0.35470   0.52593   0.13053   0.00000  Uiso   1.00
C195   C     0.62382   0.50022   0.16707   0.00000  Uiso   1.00
C196   C     0.37614   0.49989   0.16645   0.00000  Uiso   1.00
C197   C     0.47428   0.35806   0.13623   0.00000  Uiso   1.00
C198   C     0.52573   0.64194   0.19710   0.00000  Uiso   1.00
C199   C     0.52571   0.35818   0.19711   0.00000  Uiso   1.00
C200   C     0.47430   0.64182   0.13621   0.00000  Uiso   1.00
C201   C     0.37844   0.45039   0.24246   0.00000  Uiso   1.00
C202   C     0.62157   0.54974   0.09099   0.00000  Uiso   1.00
C203   C     0.62258   0.45088   0.24374   0.00000  Uiso   1.00
C204   C     0.57914   0.50004   0.16681   0.00000  Uiso   1.00
C205   C     0.37742   0.54997   0.09050   0.00000  Uiso   1.00
C206   C     0.50012   0.49998   0.07355   0.00000  Uiso   1.00
C207   C     0.50007   0.50001   0.25979   0.00000  Uiso   1.00
C208   C     0.50019   0.49994   0.02184   0.00000  Uiso   1.00
C209   C     0.50018   0.50001   0.31148   0.00000  Uiso   1.00
C210   C     0.35508   0.47415   0.20272   0.00000  Uiso   1.00
C211   C     0.64487   0.52603   0.13087   0.00000  Uiso   1.00
C212   C     0.64524   0.47454   0.20333   0.00000  Uiso   1.00
Cu213  Cu    0.50000   0.54689   0.16667   0.00000  Uiso   1.00
Cu214  Cu    0.50000   0.45311   0.16667   0.00000  Uiso   1.00
H215   H     0.45365   0.37666   0.11182   0.00000  Uiso   1.00
H216   H     0.54636   0.62334   0.22150   0.00000  Uiso   1.00
H217   H     0.54628   0.37688   0.22155   0.00000  Uiso   1.00
H218   H     0.45374   0.62313   0.11174   0.00000  Uiso   1.00
H219   H     0.41421   0.45714   0.30273   0.00000  Uiso   1.00
H220   H     0.58496   0.54295   0.03145   0.00000  Uiso   1.00
H221   H     0.61151   0.39134   0.28105   0.00000  Uiso   1.00
H222   H     0.41736   0.54444   0.03436   0.00000  Uiso   1.00
N223   N     0.50000   0.61736   0.16667   0.00000  Uiso   1.00
N224   N     0.50000   0.38264   0.16667   0.00000  Uiso   1.00
O225   O     0.43988   0.53958   0.16666   0.00000  Uiso   1.00
O226   O     0.39938   0.47714   0.27754   0.00000  Uiso   1.00
O227   O     0.62129   0.59242   0.08849   0.00000  Uiso   1.00
O228   O     0.59944   0.52299   0.05696   0.00000  Uiso   1.00
O229   O     0.59845   0.47315   0.26896   0.00000  Uiso   1.00
O230   O     0.62866   0.40327   0.25265   0.00000  Uiso   1.00
O231   O     0.37307   0.59197   0.08403   0.00000  Uiso   1.00
O232   O     0.40393   0.52436   0.06047   0.00000  Uiso   1.00
O233   O     0.56012   0.46042   0.16667   0.00000  Uiso   1.00
O234   O     0.56012   0.53958   0.16667   0.00000  Uiso   1.00
O235   O     0.43988   0.46042   0.16666   0.00000  Uiso   1.00
O236   O     0.50000   0.53959   0.09613   0.00000  Uiso   1.00
O237   O     0.50000   0.46041   0.23720   0.00000  Uiso   1.00
O238   O     0.50000   0.53959   0.23720   0.00000  Uiso   1.00
O239   O     0.50000   0.46041   0.09613   0.00000  Uiso   1.00
O240   O     0.37996   0.40771   0.24381   0.00000  Uiso   1.00
C241   C     0.75417   0.49998   0.16652   0.00000  Uiso   1.00
C242   C     0.68804   0.52593   0.13053   0.00000  Uiso   1.00
C243   C     0.95715   0.50022   0.16707   0.00000  Uiso   1.00
C244   C     0.70947   0.49989   0.16645   0.00000  Uiso   1.00
C245   C     0.80761   0.35806   0.13623   0.00000  Uiso   1.00
C246   C     0.85906   0.64194   0.19710   0.00000  Uiso   1.00
C247   C     0.85904   0.35818   0.19711   0.00000  Uiso   1.00
C248   C     0.80763   0.64182   0.13621   0.00000  Uiso   1.00
C249   C     0.71177   0.45039   0.24246   0.00000  Uiso   1.00
C250   C     0.95490   0.54974   0.09099   0.00000  Uiso   1.00
C251   C     0.95592   0.45088   0.24374   0.00000  Uiso   1.00
C252   C     0.91248   0.50004   0.16681   0.00000  Uiso   1.00
C253   C     0.71075   0.54997   0.09050   0.00000  Uiso   1.00
C254   C     0.83346   0.49998   0.07355   0.00000  Uiso   1.00
C255   C     0.83340   0.50001   0.25979   0.00000  Uiso   1.00
C256   C     0.83352   0.49994   0.02184   0.00000  Uiso   1.00
C257   C     0.83351   0.50001   0.31148   0.00000  Uiso   1.00
C258   C     0.68841   0.47415   0.20272   0.00000  Uiso   1.00
C259   C     0.97820   0.52603   0.13087   0.00000  Uiso   1.00
C260   C     0.97857   0.47454   0.20333   0.00000  Uiso   1.00
Cu261  Cu    0.83333   0.54689   0.16667   0.00000  Uiso   1.00
Cu262  Cu    0.83333   0.45311   0.16667   0.00000  Uiso   1.00
H263   H     0.78698   0.37666   0.11182   0.00000  Uiso   1.00
H264   H     0.87969   0.62334   0.22150   0.00000  Uiso   1.00
H265   H     0.87961   0.37688   0.22155   0.00000  Uiso   1.00
H266   H     0.78708   0.62313   0.11174   0.00000  Uiso   1.00
H267   H     0.74755   0.45714   0.30273   0.00000  Uiso   1.00
H268   H     0.91829   0.54295   0.03145   0.00000  Uiso   1.00
H269   H     0.94484   0.39134   0.28105   0.00000  Uiso   1.00
H270   H     0.75069   0.54444   0.03436   0.00000  Uiso   1.00
N271   N     0.83333   0.61736   0.16667   0.00000  Uiso   1.00
N272   N     0.83333   0.38264   0.16667   0.00000  Uiso   1.00
O273   O     0.77321   0.53958   0.16666   0.00000  Uiso   1.00
O274   O     0.73271   0.47714   0.27754   0.00000  Uiso   1.00
O275   O     0.95463   0.59242   0.08849   0.00000  Uiso   1.00
O276   O     0.93277   0.52299   0.05696   0.00000  Uiso   1.00
O277   O     0.93178   0.47315   0.26896   0.00000  Uiso   1.00
O278   O     0.96199   0.40327   0.25265   0.00000  Uiso   1.00
O279   O     0.70641   0.59197   0.08403   0.00000  Uiso   1.00
O280   O     0.73726   0.52436   0.06047   0.00000  Uiso   1.00
O281   O     0.89345   0.46042   0.16667   0.00000  Uiso   1.00
O282   O     0.89345   0.53958   0.16667   0.00000  Uiso   1.00
O283   O     0.77321   0.46042   0.16666   0.00000  Uiso   1.00
O284   O     0.83333   0.53959   0.09613   0.00000  Uiso   1.00
O285   O     0.83333   0.46041   0.23720   0.00000  Uiso   1.00
O286   O     0.83333   0.53959   0.23720   0.00000  Uiso   1.00
O287   O     0.83333   0.46041   0.09613   0.00000  Uiso   1.00
O288   O     0.71330   0.40771   0.24381   0.00000  Uiso   1.00
C289   C     0.08751   0.83331   0.16652   0.00000  Uiso   1.00
C290   C     0.02137   0.85926   0.13053   0.00000  Uiso   1.00
C291   C     0.29049   0.83356   0.16707   0.00000  Uiso   1.00
C292   C     0.04280   0.83322   0.16645   0.00000  Uiso   1.00
C293   C     0.14094   0.69140   0.13623   0.00000  Uiso   1.00
C294   C     0.19240   0.97527   0.19710   0.00000  Uiso   1.00
C295   C     0.19238   0.69151   0.19711   0.00000  Uiso   1.00
C296   C     0.14096   0.97516   0.13621   0.00000  Uiso   1.00
C297   C     0.04511   0.78372   0.24246   0.00000  Uiso   1.00
C298   C     0.28823   0.88308   0.09099   0.00000  Uiso   1.00
C299   C     0.28925   0.78422   0.24374   0.00000  Uiso   1.00
C300   C     0.24581   0.83337   0.16681   0.00000  Uiso   1.00
C301   C     0.04409   0.88331   0.09050   0.00000  Uiso   1.00
C302   C     0.16679   0.83331   0.07355   0.00000  Uiso   1.00
C303   C     0.16673   0.83335   0.25979   0.00000  Uiso   1.00
C304   C     0.16686   0.83328   0.02184   0.00000  Uiso   1.00
C305   C     0.16684   0.83334   0.31148   0.00000  Uiso   1.00
C306   C     0.02175   0.80748   0.20272   0.00000  Uiso   1.00
C307   C     0.31153   0.85936   0.13087   0.00000  Uiso   1.00
C308   C     0.31191   0.80788   0.20333   0.00000  Uiso   1.00
Cu309  Cu    0.16667   0.88022   0.16667   0.00000  Uiso   1.00
Cu310  Cu    0.16667   0.78645   0.16667   0.00000  Uiso   1.00
H311   H     0.12032   0.71000   0.11182   0.00000  Uiso   1.00
H312   H     0.21303   0.95667   0.22150   0.00000  Uiso   1.00
H313   H     0.21294   0.71021   0.22155   0.00000  Uiso   1.00
H314   H     0.12041   0.95646   0.11174   0.00000  Uiso   1.00
H315   H     0.08088   0.79048   0.30273   0.00000  Uiso   1.00
H316   H     0.25162   0.87629   0.03145   0.00000  Uiso   1.00
H317   H     0.27818   0.72467   0.28105   0.00000  Uiso   1.00
H318   H     0.08402   0.87777   0.03436   0.00000  Uiso   1.00
N319   N     0.16667   0.95069   0.16667   0.00000  Uiso   1.00
N320   N     0.16667   0.71598   0.16667   0.00000  Uiso   1.00
O321   O     0.10655   0.87291   0.16666   0.00000  Uiso   1.00
O322   O     0.06605   0.81048   0.27754   0.00000  Uiso   1.00
O323   O     0.28796   0.92575   0.08849   0.00000  Uiso   1.00
O324   O     0.26610   0.85632   0.05696   0.00000  Uiso   1.00
O325   O     0.26511   0.80648   0.26896   0.00000  Uiso   1.00
O326   O     0.29532   0.73661   0.25265   0.00000  Uiso   1.00
O327   O     0.03974   0.92531   0.08403   0.00000  Uiso   1.00
O328   O     0.07060   0.85770   0.06047   0.00000  Uiso   1.00
O329   O     0.22679   0.79375   0.16667   0.00000  Uiso   1.00
O330   O     0.22679   0.87291   0.16667   0.00000  Uiso   1.00
O331   O     0.10655   0.79375   0.16666   0.00000  Uiso   1.00
O332   O     0.16667   0.87292   0.09613   0.00000  Uiso   1.00
O333   O     0.16667   0.79375   0.23720   0.00000  Uiso   1.00
O334   O     0.16667   0.87292   0.23720   0.00000  Uiso   1.00
O335   O     0.16667   0.79375   0.09613   0.00000  Uiso   1.00
O336   O     0.04663   0.74104   0.24381   0.00000  Uiso   1.00
C337   C     0.42084   0.83331   0.16652   0.00000  Uiso   1.00
C338   C     0.35470   0.85926   0.13053   0.00000  Uiso   1.00
C339   C     0.62382   0.83356   0.16707   0.00000  Uiso   1.00
C340   C     0.37614   0.83322   0.16645   0.00000  Uiso   1.00
C341   C     0.47428   0.69140   0.13623   0.00000  Uiso   1.00
C342   C     0.52573   0.97527   0.19710   0.00000  Uiso   1.00
C343   C     0.52571   0.69151   0.19711   0.00000  Uiso   1.00
C344   C     0.47430   0.97516   0.13621   0.00000  Uiso   1.00
C345   C     0.37844   0.78372   0.24246   0.00000  Uiso   1.00
C346   C     0.62157   0.88308   0.09099   0.00000  Uiso   1.00
C347   C     0.62258   0.78422   0.24374   0.00000  Uiso   1.00
C348   C     0.57914   0.83337   0.16681   0.00000  Uiso   1.00
C349   C     0.37742   0.88331   0.09050   0.00000  Uiso   1.00
C350   C     0.50012   0.83331   0.07355   0.00000  Uiso   1.00
C351   C     0.50007   0.83335   0.25979   0.00000  Uiso   1.00
C352   C     0.50019   0.83328   0.02184   0.00000  Uiso   1.00
C353   C     0.50018   0.83334   0.31148   0.00000  Uiso   1.00
C354   C     0.35508   0.80748   0.20272   0.00000  Uiso   1.00
C355   C     0.64487   0.85936   0.13087   0.00000  Uiso   1.00
C356   C     0.64524   0.80788   0.20333   0.00000  Uiso   1.00
Cu357  Cu    0.50000   0.88022   0.16667   0.00000  Uiso   1.00
Cu358  Cu    0.50000   0.78645   0.16667   0.00000  Uiso   1.00
H359   H     0.45365   0.71000   0.11182   0.00000  Uiso   1.00
H360   H     0.54636   0.95667   0.22150   0.00000  Uiso   1.00
H361   H     0.54628   0.71021   0.22155   0.00000  Uiso   1.00
H362   H     0.45374   0.95646   0.11174   0.00000  Uiso   1.00
H363   H     0.41421   0.79048   0.30273   0.00000  Uiso   1.00
H364   H     0.58496   0.87629   0.03145   0.00000  Uiso   1.00
H365   H     0.61151   0.72467   0.28105   0.00000  Uiso   1.00
H366   H     0.41736   0.87777   0.03436   0.00000  Uiso   1.00
N367   N     0.50000   0.95069   0.16667   0.00000  Uiso   1.00
N368   N     0.50000   0.71598   0.16667   0.00000  Uiso   1.00
O369   O     0.43988   0.87291   0.16666   0.00000  Uiso   1.00
O370   O     0.39938   0.81048   0.27754   0.00000  Uiso   1.00
O371   O     0.62129   0.92575   0.08849   0.00000  Uiso   1.00
O372   O     0.59944   0.85632   0.05696   0.00000  Uiso   1.00
O373   O     0.59845   0.80648   0.26896   0.00000  Uiso   1.00
O374   O     0.62866   0.73661   0.25265   0.00000  Uiso   1.00
O375   O     0.37307   0.92531   0.08403   0.00000  Uiso   1.00
O376   O     0.40393   0.85770   0.06047   0.00000  Uiso   1.00
O377   O     0.56012   0.79375   0.16667   0.00000  Uiso   1.00
O378   O     0.56012   0.87291   0.16667   0.00000  Uiso   1.00
O379   O     0.43988   0.79375   0.16666   0.00000  Uiso   1.00
O380   O     0.50000   0.87292   0.09613   0.00000  Uiso   1.00
O381   O     0.50000   0.79375   0.23720   0.00000  Uiso   1.00
O382   O     0.50000   0.87292   0.23720   0.00000  Uiso   1.00
O383   O     0.50000   0.79375   0.09613   0.00000  Uiso   1.00
O384   O     0.37996   0.74104   0.24381   0.00000  Uiso   1.00
C385   C     0.75417   0.83331   0.16652   0.00000  Uiso   1.00
C386   C     0.68804   0.85926   0.13053   0.00000  Uiso   1.00
C387   C     0.95715   0.83356   0.16707   0.00000  Uiso   1.00
C388   C     0.70947   0.83322   0.16645   0.00000  Uiso   1.00
C389   C     0.80761   0.69140   0.13623   0.00000  Uiso   1.00
C390   C     0.85906   0.97527   0.19710   0.00000  Uiso   1.00
C391   C     0.85904   0.69151   0.19711   0.00000  Uiso   1.00
C392   C     0.80763   0.97516   0.13621   0.00000  Uiso   1.00
C393   C     0.71177   0.78372   0.24246   0.00000  Uiso   1.00
C394   C     0.95490   0.88308   0.09099   0.00000  Uiso   1.00
C395   C     0.95592   0.78422   0.24374   0.00000  Uiso   1.00
C396   C     0.91248   0.83337   0.16681   0.00000  Uiso   1.00
C397   C     0.71075   0.88331   0.09050   0.00000  Uiso   1.00
C398   C     0.83346   0.83331   0.07355   0.00000  Uiso   1.00
C399   C     0.83340   0.83335   0.25979   0.00000  Uiso   1.00
C400   C     0.83352   0.83328   0.02184   0.00000  Uiso   1.00
C401   C     0.83351   0.83334   0.31148   0.00000  Uiso   1.00
C402   C     0.68841   0.80748   0.20272   0.00000  Uiso   1.00
C403   C     0.97820   0.85936   0.13087   0.00000  Uiso   1.00
C404   C     0.97857   0.80788   0.20333   0.00000  Uiso   1.00
Cu405  Cu    0.83333   0.88022   0.16667   0.00000  Uiso   1.00
Cu406  Cu    0.83333   0.78645   0.16667   0.00000  Uiso   1.00
H407   H     0.78698   0.71000   0.11182   0.00000  Uiso   1.00
H408   H     0.87969   0.95667   0.22150   0.00000  Uiso   1.00
H409   H     0.87961   0.71021   0.22155   0.00000  Uiso   1.00
H410   H     0.78708   0.95646   0.11174   0.00000  Uiso   1.00
H411   H     0.74755   0.79048   0.30273   0.00000  Uiso   1.00
H412   H     0.91829   0.87629   0.03145   0.00000  Uiso   1.00
H413   H     0.94484   0.72467   0.28105   0.00000  Uiso   1.00
H414   H     0.75069   0.87777   0.03436   0.00000  Uiso   1.00
N415   N     0.83333   0.95069   0.16667   0.00000  Uiso   1.00
N416   N     0.83333   0.71598   0.16667   0.00000  Uiso   1.00
O417   O     0.77321   0.87291   0.16666   0.00000  Uiso   1.00
O418   O     0.73271   0.81048   0.27754   0.00000  Uiso   1.00
O419   O     0.95463   0.92575   0.08849   0.00000  Uiso   1.00
O420   O     0.93277   0.85632   0.05696   0.00000  Uiso   1.00
O421   O     0.93178   0.80648   0.26896   0.00000  Uiso   1.00
O422   O     0.96199   0.73661   0.25265   0.00000  Uiso   1.00
O423   O     0.70641   0.92531   0.08403   0.00000  Uiso   1.00
O424   O     0.73726   0.85770   0.06047   0.00000  Uiso   1.00
O425   O     0.89345   0.79375   0.16667   0.00000  Uiso   1.00
O426   O     0.89345   0.87291   0.16667   0.00000  Uiso   1.00
O427   O     0.77321   0.79375   0.16666   0.00000  Uiso   1.00
O428   O     0.83333   0.87292   0.09613   0.00000  Uiso   1.00
O429   O     0.83333   0.79375   0.23720   0.00000  Uiso   1.00
O430   O     0.83333   0.87292   0.23720   0.00000  Uiso   1.00
O431   O     0.83333   0.79375   0.09613   0.00000  Uiso   1.00
O432   O     0.71330   0.74104   0.24381   0.00000  Uiso   1.00
C433   C     0.08751   0.16664   0.49986   0.00000  Uiso   1.00
C434   C     0.02137   0.19259   0.46386   0.00000  Uiso   1.00
C435   C     0.29049   0.16689   0.50040   0.00000  Uiso   1.00
C436   C     0.04280   0.16656   0.49978   0.00000  Uiso   1.00
C437   C     0.14094   0.02473   0.46956   0.00000  Uiso   1.00
C438   C     0.19240   0.30860   0.53043   0.00000  Uiso   1.00
C439   C     0.19238   0.02484   0.53045   0.00000  Uiso   1.00
C440   C     0.14096   0.30849   0.46954   0.00000  Uiso   1.00
C441   C     0.04511   0.11706   0.57579   0.00000  Uiso   1.00
C442   C     0.28823   0.21641   0.42433   0.00000  Uiso   1.00
C443   C     0.28925   0.11755   0.57707   0.00000  Uiso   1.00
C444   C     0.24581   0.16670   0.50015   0.00000  Uiso   1.00
C445   C     0.04409   0.21664   0.42383   0.00000  Uiso   1.00
C446   C     0.16679   0.16664   0.40688   0.00000  Uiso   1.00
C447   C     0.16673   0.16668   0.59312   0.00000  Uiso   1.00
C448   C     0.16686   0.16661   0.35518   0.00000  Uiso   1.00
C449   C     0.16684   0.16668   0.64482   0.00000  Uiso   1.00
C450   C     0.02175   0.14082   0.53605   0.00000  Uiso   1.00
C451   C     0.31153   0.19270   0.46420   0.00000  Uiso   1.00
C452   C     0.31191   0.14121   0.53666   0.00000  Uiso   1.00
Cu453  Cu    0.16667   0.21355   0.50000   0.00000  Uiso   1.00
Cu454  Cu    0.16667   0.11978   0.50000   0.00000  Uiso   1.00
H455   H     0.12032   0.04333   0.44516   0.00000  Uiso   1.00
H456   H     0.21303   0.29001   0.55484   0.00000  Uiso   1.00
H457   H     0.21294   0.04354   0.55489   0.00000  Uiso   1.00
H458   H     0.12041   0.28979   0.44508   0.00000  Uiso   1.00
H459   H     0.08088   0.12381   0.63607   0.00000  Uiso   1.00
H460   H     0.25162   0.20962   0.36478   0.00000  Uiso   1.00
H461   H     0.27818   0.05800   0.61438   0.00000  Uiso   1.00
H462   H     0.08402   0.21110   0.36769   0.00000  Uiso   1.00
N463   N     0.16667   0.28402   0.50000   0.00000  Uiso   1.00
N464   N     0.16667   0.04931   0.50000   0.00000  Uiso   1.00
O465   O     0.10655   0.20625   0.50000   0.00000  Uiso   1.00
O466   O     0.06605   0.14381   0.61088   0.00000  Uiso   1.00
O467   O     0.28796   0.25908   0.42182   0.00000  Uiso   1.00
O468   O     0.26610   0.18966   0.39029   0.00000  Uiso   1.00
O469   O     0.26511   0.13981   0.60229   0.00000  Uiso   1.00
O470   O     0.29532   0.06994   0.58598   0.00000  Uiso   1.00
O471   O     0.03974   0.25864   0.41736   0.00000  Uiso   1.00
O472   O     0.07060   0.19103   0.39381   0.00000  Uiso   1.00
O473   O     0.22679   0.12709   0.50000   0.00000  Uiso   1.00
O474   O     0.22679   0.20625   0.50000   0.00000  Uiso   1.00
O475   O     0.10655   0.12709   0.50000   0.00000  Uiso   1.00
O476   O     0.16667   0.20625   0.42946   0.00000  Uiso   1.00
O477   O     0.16667   0.12708   0.57054   0.00000  Uiso   1.00
O478   O     0.16667   0.20625   0.57054   0.00000  Uiso   1.00
O479   O     0.16667   0.12708   0.42946   0.00000  Uiso   1.00
O480   O     0.04663   0.07437   0.57715   0.00000  Uiso   1.00
C481   C     0.42084   0.16664   0.49986   0.00000  Uiso   1.00
C482   C     0.35470   0.19259   0.46386   0.00000  Uiso   1.00
C483   C     0.62382   0.16689   0.50040   0.00000  Uiso   1.00
C484   C     0.37614   0.16656   0.49978   0.00000  Uiso   1.00
C485   C     0.47428   0.02473   0.46956   0.00000  Uiso   1.00
C486   C     0.52573   0.30860   0.53043   0.00000  Uiso   1.00
C487   C     0.52571   0.02484   0.53045   0.00000  Uiso   1.00
C488   C     0.47430   0.30849   0.46954   0.00000  Uiso   1.00
C489   C     0.37844   0.11706   0.57579   0.00000  Uiso   1.00
C490   C     0.62157   0.21641   0.42433   0.00000  Uiso   1.00
C491   C     0.62258   0.11755   0.57707   0.00000  Uiso   1.00
C492   C     0.57914   0.16670   0.50015   0.00000  Uiso   1.00
C493   C     0.37742   0.21664   0.42383   0.00000  Uiso   1.00
C494   C     0.50012   0.16664   0.40688   0.00000  Uiso   1.00
C495   C     0.50007   0.16668   0.59312   0.00000  Uiso   1.00
C496   C     0.50019   0.16661   0.35518   0.00000  Uiso   1.00
C497   C     0.50018   0.16668   0.64482   0.00000  Uiso   1.00
C498   C     0.35508   0.14082   0.53605   0.00000  Uiso   1.00
C499   C     0.64487   0.19270   0.46420   0.00000  Uiso   1.00
C500   C     0.64524   0.14121   0.53666   0.00000  Uiso   1.00
Cu501  Cu    0.50000   0.21355   0.50000   0.00000  Uiso   1.00
Cu502  Cu    0.50000   0.11978   0.50000   0.00000  Uiso   1.00
H503   H     0.45365   0.04333   0.44516   0.00000  Uiso   1.00
H504   H     0.54636   0.29001   0.55484   0.00000  Uiso   1.00
H505   H     0.54628   0.04354   0.55489   0.00000  Uiso   1.00
H506   H     0.45374   0.28979   0.44508   0.00000  Uiso   1.00
H507   H     0.41421   0.12381   0.63607   0.00000  Uiso   1.00
H508   H     0.58496   0.20962   0.36478   0.00000  Uiso   1.00
H509   H     0.61151   0.05800   0.61438   0.00000  Uiso   1.00
H510   H     0.41736   0.21110   0.36769   0.00000  Uiso   1.00
N511   N     0.50000   0.28402   0.50000   0.00000  Uiso   1.00
N512   N     0.50000   0.04931   0.50000   0.00000  Uiso   1.00
O513   O     0.43988   0.20625   0.50000   0.00000  Uiso   1.00
O514   O     0.39938   0.14381   0.61088   0.00000  Uiso   1.00
O515   O     0.62129   0.25908   0.42182   0.00000  Uiso   1.00
O516   O     0.59944   0.18966   0.39029   0.00000  Uiso   1.00
O517   O     0.59845   0.13981   0.60229   0.00000  Uiso   1.00
O518   O     0.62866   0.06994   0.58598   0.00000  Uiso   1.00
O519   O     0.37307   0.25864   0.41736   0.00000  Uiso   1.00
O520   O     0.40393   0.19103   0.39381   0.00000  Uiso   1.00
O521   O     0.56012   0.12709   0.50000   0.00000  Uiso   1.00
O522   O     0.56012   0.20625   0.50000   0.00000  Uiso   1.00
O523   O     0.43988   0.12709   0.50000   0.00000  Uiso   1.00
O524   O     0.50000   0.20625   0.42946   0.00000  Uiso   1.00
O525   O     0.50000   0.12708   0.57054   0.00000  Uiso   1.00
O526   O     0.50000   0.20625   0.57054   0.00000  Uiso   1.00
O527   O     0.50000   0.12708   0.42946   0.00000  Uiso   1.00
O528   O     0.37996   0.07437   0.57715   0.00000  Uiso   1.00
C529   C     0.75417   0.16664   0.49986   0.00000  Uiso   1.00
C530   C     0.68804   0.19259   0.46386   0.00000  Uiso   1.00
C531   C     0.95715   0.16689   0.50040   0.00000  Uiso   1.00
C532   C     0.70947   0.16656   0.49978   0.00000  Uiso   1.00
C533   C     0.80761   0.02473   0.46956   0.00000  Uiso   1.00
C534   C     0.85906   0.30860   0.53043   0.00000  Uiso   1.00
C535   C     0.85904   0.02484   0.53045   0.00000  Uiso   1.00
C536   C     0.80763   0.30849   0.46954   0.00000  Uiso   1.00
C537   C     0.71177   0.11706   0.57579   0.00000  Uiso   1.00
C538   C     0.95490   0.21641   0.42433   0.00000  Uiso   1.00
C539   C     0.95592   0.11755   0.57707   0.00000  Uiso   1.00
C540   C     0.91248   0.16670   0.50015   0.00000  Uiso   1.00
C541   C     0.71075   0.21664   0.42383   0.00000  Uiso   1.00
C542   C     0.83346   0.16664   0.40688   0.00000  Uiso   1.00
C543   C     0.83340   0.16668   0.59312   0.00000  Uiso   1.00
C544   C     0.83352   0.16661   0.35518   0.00000  Uiso   1.00
C545   C     0.83351   0.16668   0.64482   0.00000  Uiso   1.00
C546   C     0.68841   0.14082   0.53605   0.00000  Uiso   1.00
C547   C     0.97820   0.19270   0.46420   0.00000  Uiso   1.00
C548   C     0.97857   0.14121   0.53666   0.00000  Uiso   1.00
Cu549  Cu    0.83333   0.21355   0.50000   0.00000  Uiso   1.00
Cu550  Cu    0.83333   0.11978   0.50000   0.00000  Uiso   1.00
H551   H     0.78698   0.04333   0.44516   0.00000  Uiso   1.00
H552   H     0.87969   0.29001   0.55484   0.00000  Uiso   1.00
H553   H     0.87961   0.04354   0.55489   0.00000  Uiso   1.00
H554   H     0.78708   0.28979   0.44508   0.00000  Uiso   1.00
H555   H     0.74755   0.12381   0.63607   0.00000  Uiso   1.00
H556   H     0.91829   0.20962   0.36478   0.00000  Uiso   1.00
H557   H     0.94484   0.05800   0.61438   0.00000  Uiso   1.00
H558   H     0.75069   0.21110   0.36769   0.00000  Uiso   1.00
N559   N     0.83333   0.28402   0.50000   0.00000  Uiso   1.00
N560   N     0.83333   0.04931   0.50000   0.00000  Uiso   1.00
O561   O     0.77321   0.20625   0.50000   0.00000  Uiso   1.00
O562   O     0.73271   0.14381   0.61088   0.00000  Uiso   1.00
O563   O     0.95463   0.25908   0.42182   0.00000  Uiso   1.00
O564   O     0.93277   0.18966   0.39029   0.00000  Uiso   1.00
O565   O     0.93178   0.13981   0.60229   0.00000  Uiso   1.00
O566   O     0.96199   0.06994   0.58598   0.00000  Uiso   1.00
O567   O     0.70641   0.25864   0.41736   0.00000  Uiso   1.00
O568   O     0.73726   0.19103   0.39381   0.00000  Uiso   1.00
O569   O     0.89345   0.12709   0.50000   0.00000  Uiso   1.00
O570   O     0.89345   0.20625   0.50000   0.00000  Uiso   1.00
O571   O     0.77321   0.12709   0.50000   0.00000  Uiso   1.00
O572   O     0.83333   0.20625   0.42946   0.00000  Uiso   1.00
O573   O     0.83333   0.12708   0.57054   0.00000  Uiso   1.00
O574   O     0.83333   0.20625   0.57054   0.00000  Uiso   1.00
O575   O     0.83333   0.12708   0.42946   0.00000  Uiso   1.00
O576   O     0.71330   0.07437   0.57715   0.00000  Uiso   1.00
C577   C     0.08751   0.49998   0.49986   0.00000  Uiso   1.00
C578   C     0.02137   0.52593   0.46386   0.00000  Uiso   1.00
C579   C     0.29049   0.50022   0.50040   0.00000  Uiso   1.00
C580   C     0.04280   0.49989   0.49978   0.00000  Uiso   1.00
C581   C     0.14094   0.35806   0.46956   0.00000  Uiso   1.00
C582   C     0.19240   0.64194   0.53043   0.00000  Uiso   1.00
C583   C     0.19238   0.35818   0.53045   0.00000  Uiso   1.00
C584   C     0.14096   0.64182   0.46954   0.00000  Uiso   1.00
C585   C     0.04511   0.45039   0.57579   0.00000  Uiso   1.00
C586   C     0.28823   0.54974   0.42433   0.00000  Uiso   1.00
C587   C     0.28925   0.45088   0.57707   0.00000  Uiso   1.00
C588   C     0.24581   0.50004   0.50015   0.00000  Uiso   1.00
C589   C     0.04409   0.54997   0.42383   0.00000  Uiso   1.00
C590   C     0.16679   0.49998   0.40688   0.00000  Uiso   1.00
C591   C     0.16673   0.50001   0.59312   0.00000  Uiso   1.00
C592   C     0.16686   0.49994   0.35518   0.00000  Uiso   1.00
C593   C     0.16684   0.50001   0.64482   0.00000  Uiso   1.00
C594   C     0.02175   0.47415   0.53605   0.00000  Uiso   1.00
C595   C     0.31153   0.52603   0.46420   0.00000  Uiso   1.00
C596   C     0.31191   0.47454   0.53666   0.00000  Uiso   1.00
Cu597  Cu    0.16667   0.54689   0.50000   0.00000  Uiso   1.00
Cu598  Cu    0.16667   0.45311   0.50000   0.00000  Uiso   1.00
H599   H     0.12032   0.37666   0.44516   0.00000  Uiso   1.00
H600   H     0.21303   0.62334   0.55484   0.00000  Uiso   1.00
H601   H     0.21294   0.37688   0.55489   0.00000  Uiso   1.00
H602   H     0.12041   0.62313   0.44508   0.00000  Uiso   1.00
H603   H     0.08088   0.45714   0.63607   0.00000  Uiso   1.00
H604   H     0.25162   0.54295   0.36478   0.00000  Uiso   1.00
H605   H     0.27818   0.39134   0.61438   0.00000  Uiso   1.00
H606   H     0.08402   0.54444   0.36769   0.00000  Uiso   1.00
N607   N     0.16667   0.61736   0.50000   0.00000  Uiso   1.00
N608   N     0.16667   0.38264   0.50000   0.00000  Uiso   1.00
O609   O     0.10655   0.53958   0.50000   0.00000  Uiso   1.00
O610   O     0.06605   0.47714   0.61088   0.00000  Uiso   1.00
O611   O     0.28796   0.59242   0.42182   0.00000  Uiso   1.00
O612   O     0.26610   0.52299   0.39029   0.00000  Uiso   1.00
O613   O     0.26511   0.47315   0.60229   0.00000  Uiso   1.00
O614   O     0.29532   0.40327   0.58598   0.00000  Uiso   1.00
O615   O     0.03974   0.59197   0.41736   0.00000  Uiso   1.00
O616   O     0.07060   0.52436   0.39381   0.00000  Uiso   1.00
O617   O     0.22679   0.46042   0.50000   0.00000  Uiso   1.00
O618   O     0.22679   0.53958   0.50000   0.00000  Uiso   1.00
O619   O     0.10655   0.46042   0.50000   0.00000  Uiso   1.00
O620   O     0.16667   0.53959   0.42946   0.00000  Uiso   1.00
O621   O     0.16667   0.46041   0.57054   0.00000  Uiso   1.00
O622   O     0.16667   0.53959   0.57054   0.00000  Uiso   1.00
O623   O     0.16667   0.46041   0.42946   0.00000  Uiso   1.00
O624   O     0.04663   0.40771   0.57715   0.00000  Uiso   1.00
C625   C     0.42084   0.49998   0.49986   0.00000  Uiso   1.00
C626   C     0.35470   0.52593   0.46386   0.00000  Uiso   1.00
C627   C     0.62382   0.50022   0.50040   0.00000  Uiso   1.00
C628   C     0.37614   0.49989   0.49978   0.00000  Uiso   1.00
C629   C     0.47428   0.35806   0.46956   0.00000  Uiso   1.00
C630   C     0.52573   0.64194   0.53043   0.00000  Uiso   1.00
C631   C     0.52571   0.35818   0.53045   0.00000  Uiso   1.00
C632   C     0.47430   0.64182   0.46954   0.00000  Uiso   1.00
C633   C     0.37844   0.45039   0.57579   0.00000  Uiso   1.00
C634   C     0.62157   0.54974   0.42433   0.00000  Uiso   1.00
C635   C     0.62258   0.45088   0.57707   0.00000  Uiso   1.00
C636   C     0.57914   0.50004   0.50015   0.00000  Uiso   1.00
C637   C     0.37742   0.54997   0.42383   0.00000  Uiso   1.00
C638   C     0.50012   0.49998   0.40688   0.00000  Uiso   1.00
C639   C     0.50007   0.50001   0.59312   0.00000  Uiso   1.00
C640   C     0.50019   0.49994   0.35518   0.00000  Uiso   1.00
C641   C     0.50018   0.50001   0.64482   0.00000  Uiso   1.00
C642   C     0.35508   0.47415   0.53605   0.00000  Uiso   1.00
C643   C     0.64487   0.52603   0.46420   0.00000  Uiso   1.00
C644   C     0.64524   0.47454   0.53666   0.00000  Uiso   1.00
Cu645  Cu    0.50000   0.54689   0.50000   0.00000  Uiso   1.00
Cu646  Cu    0.50000   0.45311   0.50000   0.00000  Uiso   1.00
H647   H     0.45365   0.37666   0.44516   0.00000  Uiso   1.00
H648   H     0.54636   0.62334   0.55484   0.00000  Uiso   1.00
H649   H     0.54628   0.37688   0.55489   0.00000  Uiso   1.00
H650   H     0.45374   0.62313   0.44508   0.00000  Uiso   1.00
H651   H     0.41421   0.45714   0.63607   0.00000  Uiso   1.00
H652   H     0.58496   0.54295   0.36478   0.00000  Uiso   1.00
H653   H     0.61151   0.39134   0.61438   0.00000  Uiso   1.00
H654   H     0.41736   0.54444   0.36769   0.00000  Uiso   1.00
N655   N     0.50000   0.61736   0.50000   0.00000  Uiso   1.00
N656   N     0.50000   0.38264   0.50000   0.00000  Uiso   1.00
O657   O     0.43988   0.53958   0.50000   0.00000  Uiso   1.00
O658   O     0.39938   0.47714   0.61088   0.00000  Uiso   1.00
O659   O     0.62129   0.59242   0.42182   0.00000  Uiso   1.00
O660   O     0.59944   0.52299   0.39029   0.00000  Uiso   1.00
O661   O     0.59845   0.47315   0.60229   0.00000  Uiso   1.00
O662   O     0.62866   0.40327   0.58598   0.00000  Uiso   1.00
O663   O     0.37307   0.59197   0.41736   0.00000  Uiso   1.00
O664   O     0.40393   0.52436   0.39381   0.00000  Uiso   1.00
O665   O     0.56012   0.46042   0.50000   0.00000  Uiso   1.00
O666   O     0.56012   0.53958   0.50000   0.00000  Uiso   1.00
O667   O     0.43988   0.46042   0.50000   0.00000  Uiso   1.00
O668   O     0.50000   0.53959   0.42946   0.00000  Uiso   1.00
O669   O     0.50000   0.46041   0.57054   0.00000  Uiso   1.00
O670   O     0.50000   0.53959   0.57054   0.00000  Uiso   1.00
O671   O     0.50000   0.46041   0.42946   0.00000  Uiso   1.00
O672   O     0.37996   0.40771   0.57715   0.00000  Uiso   1.00
C673   C     0.75417   0.49998   0.49986   0.00000  Uiso   1.00
C674   C     0.68804   0.52593   0.46386   0.00000  Uiso   1.00
C675   C     0.95715   0.50022   0.50040   0.00000  Uiso   1.00
C676   C     0.70947   0.49989   0.49978   0.00000  Uiso   1.00
C677   C     0.80761   0.35806   0.46956   0.00000  Uiso   1.00
C678   C     0.85906   0.64194   0.53043   0.00000  Uiso   1.00
C679   C     0.85904   0.35818   0.53045   0.00000  Uiso   1.00
C680   C     0.80763   0.64182   0.46954   0.00000  Uiso   1.00
C681   C     0.71177   0.45039   0.57579   0.00000  Uiso   1.00
C682   C     0.95490   0.54974   0.42433   0.00000  Uiso   1.00
C683   C     0.95592   0.45088   0.57707   0.00000  Uiso   1.00
C684   C     0.91248   0.50004   0.50015   0.00000  Uiso   1.00
C685   C     0.71075   0.54997   0.42383   0.00000  Uiso   1.00
C686   C     0.83346   0.49998   0.40688   0.00000  Uiso   1.00
C687   C     0.83340   0.50001   0.59312   0.00000  Uiso   1.00
C688   C     0.83352   0.49994   0.35518   0.00000  Uiso   1.00
C689   C     0.83351   0.50001   0.64482   0.00000  Uiso   1.00
C690   C     0.68841   0.47415   0.53605   0.00000  Uiso   1.00
C691   C     0.97820   0.52603   0.46420   0.00000  Uiso   1.00
C692   C     0.97857   0.47454   0.53666   0.00000  Uiso   1.00
Cu693  Cu    0.83333   0.54689   0.50000   0.00000  Uiso   1.00
Cu694  Cu    0.83333   0.45311   0.50000   0.00000  Uiso   1.00
H695   H     0.78698   0.37666   0.44516   0.00000  Uiso   1.00
H696   H     0.87969   0.62334   0.55484   0.00000  Uiso   1.00
H697   H     0.87961   0.37688   0.55489   0.00000  Uiso   1.00
H698   H     0.78708   0.62313   0.44508   0.00000  Uiso   1.00
H699   H     0.74755   0.45714   0.63607   0.00000  Uiso   1.00
H700   H     0.91829   0.54295   0.36478   0.00000  Uiso   1.00
H701   H     0.94484   0.39134   0.61438   0.00000  Uiso   1.00
H702   H     0.75069   0.54444   0.36769   0.00000  Uiso   1.00
N703   N     0.83333   0.61736   0.50000   0.00000  Uiso   1.00
N704   N     0.83333   0.38264   0.50000   0.00000  Uiso   1.00
O705   O     0.77321   0.53958   0.50000   0.00000  Uiso   1.00
O706   O     0.73271   0.47714   0.61088   0.00000  Uiso   1.00
O707   O     0.95463   0.59242   0.42182   0.00000  Uiso   1.00
O708   O     0.93277   0.52299   0.39029   0.00000  Uiso   1.00
O709   O     0.93178   0.47315   0.60229   0.00000  Uiso   1.00
O710   O     0.96199   0.40327   0.58598   0.00000  Uiso   1.00
O711   O     0.70641   0.59197   0.41736   0.00000  Uiso   1.00
O712   O     0.73726   0.52436   0.39381   0.00000  Uiso   1.00
O713   O     0.89345   0.46042   0.50000   0.00000  Uiso   1.00
O714   O     0.89345   0.53958   0.50000   0.00000  Uiso   1.00
O715   O     0.77321   0.46042   0.50000   0.00000  Uiso   1.00
O716   O     0.83333   0.53959   0.42946   0.00000  Uiso   1.00
O717   O     0.83333   0.46041   0.57054   0.00000  Uiso   1.00
O718   O     0.83333   0.53959   0.57054   0.00000  Uiso   1.00
O719   O     0.83333   0.46041   0.42946   0.00000  Uiso   1.00
O720   O     0.71330   0.40771   0.57715   0.00000  Uiso   1.00
C721   C     0.08751   0.83331   0.49986   0.00000  Uiso   1.00
C722   C     0.02137   0.85926   0.46386   0.00000  Uiso   1.00
C723   C     0.29049   0.83356   0.50040   0.00000  Uiso   1.00
C724   C     0.04280   0.83322   0.49978   0.00000  Uiso   1.00
C725   C     0.14094   0.69140   0.46956   0.00000  Uiso   1.00
C726   C     0.19240   0.97527   0.53043   0.00000  Uiso   1.00
C727   C     0.19238   0.69151   0.53045   0.00000  Uiso   1.00
C728   C     0.14096   0.97516   0.46954   0.00000  Uiso   1.00
C729   C     0.04511   0.78372   0.57579   0.00000  Uiso   1.00
C730   C     0.28823   0.88308   0.42433   0.00000  Uiso   1.00
C731   C     0.28925   0.78422   0.57707   0.00000  Uiso   1.00
C732   C     0.24581   0.83337   0.50015   0.00000  Uiso   1.00
C733   C     0.04409   0.88331   0.42383   0.00000  Uiso   1.00
C734   C     0.16679   0.83331   0.40688   0.00000  Uiso   1.00
C735   C     0.16673   0.83335   0.59312   0.00000  Uiso   1.00
C736   C     0.16686   0.83328   0.35518   0.00000  Uiso   1.00
C737   C     0.16684   0.83334   0.64482   0.00000  Uiso   1.00
C738   C     0.02175   0.80748   0.53605   0.00000  Uiso   1.00
C739   C     0.31153   0.85936   0.46420   0.00000  Uiso   1.00
C740   C     0.31191   0.80788   0.53666   0.00000  Uiso   1.00
Cu741  Cu    0.16667   0.88022   0.50000   0.00000  Uiso   1.00
Cu742  Cu    0.16667   0.78645   0.50000   0.00000  Uiso   1.00
H743   H     0.12032   0.71000   0.44516   0.00000  Uiso   1.00
H744   H     0.21303   0.95667   0.55484   0.00000  Uiso   1.00
H745   H     0.21294   0.71021   0.55489   0.00000  Uiso   1.00
H746   H     0.12041   0.95646   0.44508   0.00000  Uiso   1.00
H747   H     0.08088   0.79048   0.63607   0.00000  Uiso   1.00
H748   H     0.25162   0.87629   0.36478   0.00000  Uiso   1.00
H749   H     0.27818   0.72467   0.61438   0.00000  Uiso   1.00
H750   H     0.08402   0.87777   0.36769   0.00000  Uiso   1.00
N751   N     0.16667   0.95069   0.50000   0.00000  Uiso   1.00
N752   N     0.16667   0.71598   0.50000   0.00000  Uiso   1.00
O753   O     0.10655   0.87291   0.50000   0.00000  Uiso   1.00
O754   O     0.06605   0.81048   0.61088   0.00000  Uiso   1.00
O755   O     0.28796   0.92575   0.42182   0.00000  Uiso   1.00
O756   O     0.26610   0.85632   0.39029   0.00000  Uiso   1.00
O757   O     0.26511   0.80648   0.60229   0.00000  Uiso   1.00
O758   O     0.29532   0.73661   0.58598   0.00000  Uiso   1.00
O759   O     0.03974   0.92531   0.41736   0.00000  Uiso   1.00
O760   O     0.07060   0.85770   0.39381   0.00000  Uiso   1.00
O761   O     0.22679   0.79375   0.50000   0.00000  Uiso   1.00
O762   O     0.22679   0.87291   0.50000   0.00000  Uiso   1.00
O763   O     0.10655   0.79375   0.50000   0.00000  Uiso   1.00
O764   O     0.16667   0.87292   0.42946   0.00000  Uiso   1.00
O765   O     0.16667   0.79375   0.57054   0.00000  Uiso   1.00
O766   O     0.16667   0.87292   0.57054   0.00000  Uiso   1.00
O767   O     0.16667   0.79375   0.42946   0.00000  Uiso   1.00
O768   O     0.04663   0.74104   0.57715   0.00000  Uiso   1.00
C769   C     0.42084   0.83331   0.49986   0.00000  Uiso   1.00
C770   C     0.35470   0.85926   0.46386   0.00000  Uiso   1.00
C771   C     0.62382   0.83356   0.50040   0.00000  Uiso   1.00
C772   C     0.37614   0.83322   0.49978   0.00000  Uiso   1.00
C773   C     0.47428   0.69140   0.46956   0.00000  Uiso   1.00
C774   C     0.52573   0.97527   0.53043   0.00000  Uiso   1.00
C775   C     0.52571   0.69151   0.53045   0.00000  Uiso   1.00
C776   C     0.47430   0.97516   0.46954   0.00000  Uiso   1.00
C777   C     0.37844   0.78372   0.57579   0.00000  Uiso   1.00
C778   C     0.62157   0.88308   0.42433   0.00000  Uiso   1.00
C779   C     0.62258   0.78422   0.57707   0.00000  Uiso   1.00
C780   C     0.57914   0.83337   0.50015   0.00000  Uiso   1.00
C781   C     0.37742   0.88331   0.42383   0.00000  Uiso   1.00
C782   C     0.50012   0.83331   0.40688   0.00000  Uiso   1.00
C783   C     0.50007   0.83335   0.59312   0.00000  Uiso   1.00
C784   C     0.50019   0.83328   0.35518   0.00000  Uiso   1.00
C785   C     0.50018   0.83334   0.64482   0.00000  Uiso   1.00
C786   C     0.35508   0.80748   0.53605   0.00000  Uiso   1.00
C787   C     0.64487   0.85936   0.46420   0.00000  Uiso   1.00
C788   C     0.64524   0.80788   0.53666   0.00000  Uiso   1.00
Cu789  Cu    0.50000   0.88022   0.50000   0.00000  Uiso   1.00
Cu790  Cu    0.50000   0.78645   0.50000   0.00000  Uiso   1.00
H791   H     0.45365   0.71000   0.44516   0.00000  Uiso   1.00
H792   H     0.54636   0.95667   0.55484   0.00000  Uiso   1.00
H793   H     0.54628   0.71021   0.55489   0.00000  Uiso   1.00
H794   H     0.45374   0.95646   0.44508   0.00000  Uiso   1.00
H795   H     0.41421   0.79048   0.63607   0.00000  Uiso   1.00
H796   H     0.58496   0.87629   0.36478   0.00000  Uiso   1.00
H797   H     0.61151   0.72467   0.61438   0.00000  Uiso   1.00
H798   H     0.41736   0.87777   0.36769   0.00000  Uiso   1.00
N799   N     0.50000   0.95069   0.50000   0.00000  Uiso   1.00
N800   N     0.50000   0.71598   0.50000   0.00000  Uiso   1.00
O801   O     0.43988   0.87291   0.50000   0.00000  Uiso   1.00
O802   O     0.39938   0.81048   0.61088   0.00000  Uiso   1.00
O803   O     0.62129   0.92575   0.42182   0.00000  Uiso   1.00
O804   O     0.59944   0.85632   0.39029   0.00000  Uiso   1.00
O805   O     0.59845   0.80648   0.60229   0.00000  Uiso   1.00
O806   O     0.62866   0.73661   0.58598   0.00000  Uiso   1.00
O807   O     0.37307   0.92531   0.41736   0.00000  Uiso   1.00
O808   O     0.40393   0.85770   0.39381   0.00000  Uiso   1.00
O809   O     0.56012   0.79375   0.50000   0.00000  Uiso   1.00
O810   O     0.56012   0.87291   0.50000   0.00000  Uiso   1.00
O811   O     0.43988   0.79375   0.50000   0.00000  Uiso   1.00
O812   O     0.50000   0.87292   0.42946   0.00000  Uiso   1.00
O813   O     0.50000   0.79375   0.57054   0.00000  Uiso   1.00
O814   O     0.50000   0.87292   0.57054   0.00000  Uiso   1.00
O815   O     0.50000   0.79375   0.42946   0.00000  Uiso   1.00
O816   O     0.37996   0.74104   0.57715   0.00000  Uiso   1.00
C817   C     0.75417   0.83331   0.49986   0.00000  Uiso   1.00
C818   C     0.68804   0.85926   0.46386   0.00000  Uiso   1.00
C819   C     0.95715   0.83356   0.50040   0.00000  Uiso   1.00
C820   C     0.70947   0.83322   0.49978   0.00000  Uiso   1.00
C821   C     0.80761   0.69140   0.46956   0.00000  Uiso   1.00
C822   C     0.85906   0.97527   0.53043   0.00000  Uiso   1.00
C823   C     0.85904   0.69151   0.53045   0.00000  Uiso   1.00
C824   C     0.80763   0.97516   0.46954   0.00000  Uiso   1.00
C825   C     0.71177   0.78372   0.57579   0.00000  Uiso   1.00
C826   C     0.95490   0.88308   0.42433   0.00000  Uiso   1.00
C827   C     0.95592   0.78422   0.57707   0.00000  Uiso   1.00
C828   C     0.91248   0.83337   0.50015   0.00000  Uiso   1.00
C829   C     0.71075   0.88331   0.42383   0.00000  Uiso   1.00
C830   C     0.83346   0.83331   0.40688   0.00000  Uiso   1.00
C831   C     0.83340   0.83335   0.59312   0.00000  Uiso   1.00
C832   C     0.83352   0.83328   0.35518   0.00000  Uiso   1.00
C833   C     0.83351   0.83334   0.64482   0.00000  Uiso   1.00
C834   C     0.68841   0.80748   0.53605   0.00000  Uiso   1.00
C835   C     0.97820   0.85936   0.46420   0.00000  Uiso   1.00
C836   C     0.97857   0.80788   0.53666   0.00000  Uiso   1.00
Cu837  Cu    0.83333   0.88022   0.50000   0.00000  Uiso   1.00
Cu838  Cu    0.83333   0.78645   0.50000   0.00000  Uiso   1.00
H839   H     0.78698   0.71000   0.44516   0.00000  Uiso   1.00
H840   H     0.87969   0.95667   0.55484   0.00000  Uiso   1.00
H841   H     0.87961   0.71021   0.55489   0.00000  Uiso   1.00
H842   H     0.78708   0.95646   0.44508   0.00000  Uiso   1.00
H843   H     0.74755   0.79048   0.63607   0.00000  Uiso   1.00
H844   H     0.91829   0.87629   0.36478   0.00000  Uiso   1.00
H845   H     0.94484   0.72467   0.61438   0.00000  Uiso   1.00
H846   H     0.75069   0.87777   0.36769   0.00000  Uiso   1.00
N847   N     0.83333   0.95069   0.50000   0.00000  Uiso   1.00
N848   N     0.83333   0.71598   0.50000   0.00000  Uiso   1.00
O849   O     0.77321   0.87291   0.50000   0.00000  Uiso   1.00
O850   O     0.73271   0.81048   0.61088   0.00000  Uiso   1.00
O851   O     0.95463   0.92575   0.42182   0.00000  Uiso   1.00
O852   O     0.93277   0.85632   0.39029   0.00000  Uiso   1.00
O853   O     0.93178   0.80648   0.60229   0.00000  Uiso   1.00
O854   O     0.96199   0.73661   0.58598   0.00000  Uiso   1.00
O855   O     0.70641   0.92531   0.41736   0.00000  Uiso   1.00
O856   O     0.73726   0.85770   0.39381   0.00000  Uiso   1.00
O857   O     0.89345   0.79375   0.50000   0.00000  Uiso   1.00
O858   O     0.89345   0.87291   0.50000   0.00000  Uiso   1.00
O859   O     0.77321   0.79375   0.50000   0.00000  Uiso   1.00
O860   O     0.83333   0.87292   0.42946   0.00000  Uiso   1.00
O861   O     0.83333   0.79375   0.57054   0.00000  Uiso   1.00
O862   O     0.83333   0.87292   0.57054   0.00000  Uiso   1.00
O863   O     0.83333   0.79375   0.42946   0.00000  Uiso   1.00
O864   O     0.71330   0.74104   0.57715   0.00000  Uiso   1.00
C865   C     0.08751   0.16664   0.83319   0.00000  Uiso   1.00
C866   C     0.02137   0.19259   0.79719   0.00000  Uiso   1.00
C867   C     0.29049   0.16689   0.83374   0.00000  Uiso   1.00
C868   C     0.04280   0.16656   0.83311   0.00000  Uiso   1.00
C869   C     0.14094   0.02473   0.80289   0.00000  Uiso   1.00
C870   C     0.19240   0.30860   0.86377   0.00000  Uiso   1.00
C871   C     0.19238   0.02484   0.86378   0.00000  Uiso   1.00
C872   C     0.14096   0.30849   0.80287   0.00000  Uiso   1.00
C873   C     0.04511   0.11706   0.90912   0.00000  Uiso   1.00
C874   C     0.28823   0.21641   0.75766   0.00000  Uiso   1.00
C875   C     0.28925   0.11755   0.91041   0.00000  Uiso   1.00
C876   C     0.24581   0.16670   0.83348   0.00000  Uiso   1.00
C877   C     0.04409   0.21664   0.75717   0.00000  Uiso   1.00
C878   C     0.16679   0.16664   0.74021   0.00000  Uiso   1.00
C879   C     0.16673   0.16668   0.92646   0.00000  Uiso   1.00
C880   C     0.16686   0.16661   0.68851   0.00000  Uiso   1.00
C881   C     0.16684   0.16668   0.97815   0.00000  Uiso   1.00
C882   C     0.02175   0.14082   0.86938   0.00000  Uiso   1.00
C883   C     0.31153   0.19270   0.79753   0.00000  Uiso   1.00
C884   C     0.31191   0.14121   0.86999   0.00000  Uiso   1.00
Cu885  Cu    0.16667   0.21355   0.83333   0.00000  Uiso   1.00
Cu886  Cu    0.16667   0.11978   0.83333   0.00000  Uiso   1.00
H887   H     0.12032   0.04333   0.77849   0.00000  Uiso   1.00
H888   H     0.21303   0.29001   0.88817   0.00000  Uiso   1.00
H889   H     0.21294   0.04354   0.88822   0.00000  Uiso   1.00
H890   H     0.12041   0.28979   0.77841   0.00000  Uiso   1.00
H891   H     0.08088   0.12381   0.96940   0.00000  Uiso   1.00
H892   H     0.25162   0.20962   0.69812   0.00000  Uiso   1.00
H893   H     0.27818   0.05800   0.94771   0.00000  Uiso   1.00
H894   H     0.08402   0.21110   0.70102   0.00000  Uiso   1.00
N895   N     0.16667   0.28402   0.83333   0.00000  Uiso   1.00
N896   N     0.16667   0.04931   0.83333   0.00000  Uiso   1.00
O897   O     0.10655   0.20625   0.83333   0.00000  Uiso   1.00
O898   O     0.06605   0.14381   0.94421   0.00000  Uiso   1.00
O899   O     0.28796   0.25908   0.75515   0.00000  Uiso   1.00
O900   O     0.26610   0.18966   0.72363   0.00000  Uiso   1.00
O901   O     0.26511   0.13981   0.93562   0.00000  Uiso   1.00
O902   O     0.29532   0.06994   0.91931   0.00000  Uiso   1.00
O903   O     0.03974   0.25864   0.75070   0.00000  Uiso   1.00
O904   O     0.07060   0.19103   0.72714   0.00000  Uiso   1.00
O905   O     0.22679   0.12709   0.83334   0.00000  Uiso   1.00
O906   O     0.22679   0.20625   0.83334   0.00000  Uiso   1.00
O907   O     0.10655   0.12709   0.83333   0.00000  Uiso   1.00
O908   O     0.16667   0.20625   0.76280   0.00000  Uiso   1.00
O909   O     0.16667   0.12708   0.90387   0.00000  Uiso   1.00
O910   O     0.16667   0.20625   0.90387   0.00000  Uiso   1.00
O911   O     0.16667   0.12708   0.76280   0.00000  Uiso   1.00
O912   O     0.04663   0.07437   0.91048   0.00000  Uiso   1.00
C913   C     0.42084   0.16664   0.83319   0.00000  Uiso   1.00
C914   C     0.35470   0.19259   0.79719   0.00000  Uiso   1.00
C915   C     0.62382   0.16689   0.83374   0.00000  Uiso   1.00
C916   C     0.37614   0.16656   0.83311   0.00000  Uiso   1.00
C917   C     0.47428   0.02473   0.80289   0.00000  Uiso   1.00
C918   C     0.52573   0.30860   0.86377   0.00000  Uiso   1.00
C919   C     0.52571   0.02484   0.86378   0.00000  Uiso   1.00
C920   C     0.47430   0.30849   0.80287   0.00000  Uiso   1.00
C921   C     0.37844   0.11706   0.90912   0.00000  Uiso   1.00
C922   C     0.62157   0.21641   0.75766   0.00000  Uiso   1.00
C923   C     0.62258   0.11755   0.91041   0.00000  Uiso   1.00
C924   C     0.57914   0.16670   0.83348   0.00000  Uiso   1.00
C925   C     0.37742   0.21664   0.75717   0.00000  Uiso   1.00
C926   C     0.50012   0.16664   0.74021   0.00000  Uiso   1.00
C927   C     0.50007   0.16668   0.92646   0.00000  Uiso   1.00
C928   C     0.50019   0.16661   0.68851   0.00000  Uiso   1.00
C929   C     0.50018   0.16668   0.97815   0.00000  Uiso   1.00
C930   C     0.35508   0.14082   0.86938   0.00000  Uiso   1.00
C931   C     0.64487   0.19270   0.79753   0.00000  Uiso   1.00
C932   C     0.64524   0.14121   0.86999   0.00000  Uiso   1.00
Cu933  Cu    0.50000   0.21355   0.83333   0.00000  Uiso   1.00
Cu934  Cu    0.50000   0.11978   0.83333   0.00000  Uiso   1.00
H935   H     0.45365   0.04333   0.77849   0.00000  Uiso   1.00
H936   H     0.54636   0.29001   0.88817   0.00000  Uiso   1.00
H937   H     0.54628   0.04354   0.88822   0.00000  Uiso   1.00
H938   H     0.45374   0.28979   0.77841   0.00000  Uiso   1.00
H939   H     0.41421   0.12381   0.96940   0.00000  Uiso   1.00
H940   H     0.58496   0.20962   0.69812   0.00000  Uiso   1.00
H941   H     0.61151   0.05800   0.94771   0.00000  Uiso   1.00
H942   H     0.41736   0.21110   0.70102   0.00000  Uiso   1.00
N943   N     0.50000   0.28402   0.83333   0.00000  Uiso   1.00
N944   N     0.50000   0.04931   0.83333   0.00000  Uiso   1.00
O945   O     0.43988   0.20625   0.83333   0.00000  Uiso   1.00
O946   O     0.39938   0.14381   0.94421   0.00000  Uiso   1.00
O947   O     0.62129   0.25908   0.75515   0.00000  Uiso   1.00
O948   O     0.59944   0.18966   0.72363   0.00000  Uiso   1.00
O949   O     0.59845   0.13981   0.93562   0.00000  Uiso   1.00
O950   O     0.62866   0.06994   0.91931   0.00000  Uiso   1.00
O951   O     0.37307   0.25864   0.75070   0.00000  Uiso   1.00
O952   O     0.40393   0.19103   0.72714   0.00000  Uiso   1.00
O953   O     0.56012   0.12709   0.83334   0.00000  Uiso   1.00
O954   O     0.56012   0.20625   0.83334   0.00000  Uiso   1.00
O955   O     0.43988   0.12709   0.83333   0.00000  Uiso   1.00
O956   O     0.50000   0.20625   0.76280   0.00000  Uiso   1.00
O957   O     0.50000   0.12708   0.90387   0.00000  Uiso   1.00
O958   O     0.50000   0.20625   0.90387   0.00000  Uiso   1.00
O959   O     0.50000   0.12708   0.76280   0.00000  Uiso   1.00
O960   O     0.37996   0.07437   0.91048   0.00000  Uiso   1.00
C961   C     0.75417   0.16664   0.83319   0.00000  Uiso   1.00
C962   C     0.68804   0.19259   0.79719   0.00000  Uiso   1.00
C963   C     0.95715   0.16689   0.83374   0.00000  Uiso   1.00
C964   C     0.70947   0.16656   0.83311   0.00000  Uiso   1.00
C965   C     0.80761   0.02473   0.80289   0.00000  Uiso   1.00
C966   C     0.85906   0.30860   0.86377   0.00000  Uiso   1.00
C967   C     0.85904   0.02484   0.86378   0.00000  Uiso   1.00
C968   C     0.80763   0.30849   0.80287   0.00000  Uiso   1.00
C969   C     0.71177   0.11706   0.90912   0.00000  Uiso   1.00
C970   C     0.95490   0.21641   0.75766   0.00000  Uiso   1.00
C971   C     0.95592   0.11755   0.91041   0.00000  Uiso   1.00
C972   C     0.91248   0.16670   0.83348   0.00000  Uiso   1.00
C973   C     0.71075   0.21664   0.75717   0.00000  Uiso   1.00
C974   C     0.83346   0.16664   0.74021   0.00000  Uiso   1.00
C975   C     0.83340   0.16668   0.92646   0.00000  Uiso   1.00
C976   C     0.83352   0.16661   0.68851   0.00000  Uiso   1.00
C977   C     0.83351   0.16668   0.97815   0.00000  Uiso   1.00
C978   C     0.68841   0.14082   0.86938   0.00000  Uiso   1.00
C979   C     0.97820   0.19270   0.79753   0.00000  Uiso   1.00
C980   C     0.97857   0.14121   0.86999   0.00000  Uiso   1.00
Cu981  Cu    0.83333   0.21355   0.83333   0.00000  Uiso   1.00
Cu982  Cu    0.83333   0.11978   0.83333   0.00000  Uiso   1.00
H983   H     0.78698   0.04333   0.77849   0.00000  Uiso   1.00
H984   H     0.87969   0.29001   0.88817   0.00000  Uiso   1.00
H985   H     0.87961   0.04354   0.88822   0.00000  Uiso   1.00
H986   H     0.78708   0.28979   0.77841   0.00000  Uiso   1.00
H987   H     0.74755   0.12381   0.96940   0.00000  Uiso   1.00
H988   H     0.91829   0.20962   0.69812   0.00000  Uiso   1.00
H989   H     0.94484   0.05800   0.94771   0.00000  Uiso   1.00
H990   H     0.75069   0.21110   0.70102   0.00000  Uiso   1.00
N991   N     0.83333   0.28402   0.83333   0.00000  Uiso   1.00
N992   N     0.83333   0.04931   0.83333   0.00000  Uiso   1.00
O993   O     0.77321   0.20625   0.83333   0.00000  Uiso   1.00
O994   O     0.73271   0.14381   0.94421   0.00000  Uiso   1.00
O995   O     0.95463   0.25908   0.75515   0.00000  Uiso   1.00
O996   O     0.93277   0.18966   0.72363   0.00000  Uiso   1.00
O997   O     0.93178   0.13981   0.93562   0.00000  Uiso   1.00
O998   O     0.96199   0.06994   0.91931   0.00000  Uiso   1.00
O999   O     0.70641   0.25864   0.75070   0.00000  Uiso   1.00
O1000  O     0.73726   0.19103   0.72714   0.00000  Uiso   1.00
O1001  O     0.89345   0.12709   0.83334   0.00000  Uiso   1.00
O1002  O     0.89345   0.20625   0.83334   0.00000  Uiso   1.00
O1003  O     0.77321   0.12709   0.83333   0.00000  Uiso   1.00
O1004  O     0.83333   0.20625   0.76280   0.00000  Uiso   1.00
O1005  O     0.83333   0.12708   0.90387   0.00000  Uiso   1.00
O1006  O     0.83333   0.20625   0.90387   0.00000  Uiso   1.00
O1007  O     0.83333   0.12708   0.76280   0.00000  Uiso   1.00
O1008  O     0.71330   0.07437   0.91048   0.00000  Uiso   1.00
C1009  C     0.08751   0.49998   0.83319   0.00000  Uiso   1.00
C1010  C     0.02137   0.52593   0.79719   0.00000  Uiso   1.00
C1011  C     0.29049   0.50022   0.83374   0.00000  Uiso   1.00
C1012  C     0.04280   0.49989   0.83311   0.00000  Uiso   1.00
C1013  C     0.14094   0.35806   0.80289   0.00000  Uiso   1.00
C1014  C     0.19240   0.64194   0.86377   0.00000  Uiso   1.00
C1015  C     0.19238   0.35818   0.86378   0.00000  Uiso   1.00
C1016  C     0.14096   0.64182   0.80287   0.00000  Uiso   1.00
C1017  C     0.04511   0.45039   0.90912   0.00000  Uiso   1.00
C1018  C     0.28823   0.54974   0.75766   0.00000  Uiso   1.00
C1019  C     0.28925   0.45088   0.91041   0.00000  Uiso   1.00
C1020  C     0.24581   0.50004   0.83348   0.00000  Uiso   1.00
C1021  C     0.04409   0.54997   0.75717   0.00000  Uiso   1.00
C1022  C     0.16679   0.49998   0.74021   0.00000  Uiso   1.00
C1023  C     0.16673   0.50001   0.92646   0.00000  Uiso   1.00
C1024  C     0.16686   0.49994   0.68851   0.00000  Uiso   1.00
C1025  C     0.16684   0.50001   0.97815   0.00000  Uiso   1.00
C1026  C     0.02175   0.47415   0.86938   0.00000  Uiso   1.00
C1027  C     0.31153   0.52603   0.79753   0.00000  Uiso   1.00
C1028  C     0.31191   0.47454   0.86999   0.00000  Uiso   1.00
Cu1029 Cu    0.16667   0.54689   0.83333   0.00000  Uiso   1.00
Cu1030 Cu    0.16667   0.45311   0.83333   0.00000  Uiso   1.00
H1031  H     0.12032   0.37666   0.77849   0.00000  Uiso   1.00
H1032  H     0.21303   0.62334   0.88817   0.00000  Uiso   1.00
H1033  H     0.21294   0.37688   0.88822   0.00000  Uiso   1.00
H1034  H     0.12041   0.62313   0.77841   0.00000  Uiso   1.00
H1035  H     0.08088   0.45714   0.96940   0.00000  Uiso   1.00
H1036  H     0.25162   0.54295   0.69812   0.00000  Uiso   1.00
H1037  H     0.27818   0.39134   0.94771   0.00000  Uiso   1.00
H1038  H     0.08402   0.54444   0.70102   0.00000  Uiso   1.00
N1039  N     0.16667   0.61736   0.83333   0.00000  Uiso   1.00
N1040  N     0.16667   0.38264   0.83333   0.00000  Uiso   1.00
O1041  O     0.10655   0.53958   0.83333   0.00000  Uiso   1.00
O1042  O     0.06605   0.47714   0.94421   0.00000  Uiso   1.00
O1043  O     0.28796   0.59242   0.75515   0.00000  Uiso   1.00
O1044  O     0.26610   0.52299   0.72363   0.00000  Uiso   1.00
O1045  O     0.26511   0.47315   0.93562   0.00000  Uiso   1.00
O1046  O     0.29532   0.40327   0.91931   0.00000  Uiso   1.00
O1047  O     0.03974   0.59197   0.75070   0.00000  Uiso   1.00
O1048  O     0.07060   0.52436   0.72714   0.00000  Uiso   1.00
O1049  O     0.22679   0.46042   0.83334   0.00000  Uiso   1.00
O1050  O     0.22679   0.53958   0.83334   0.00000  Uiso   1.00
O1051  O     0.10655   0.46042   0.83333   0.00000  Uiso   1.00
O1052  O     0.16667   0.53959   0.76280   0.00000  Uiso   1.00
O1053  O     0.16667   0.46041   0.90387   0.00000  Uiso   1.00
O1054  O     0.16667   0.53959   0.90387   0.00000  Uiso   1.00
O1055  O     0.16667   0.46041   0.76280   0.00000  Uiso   1.00
O1056  O     0.04663   0.40771   0.91048   0.00000  Uiso   1.00
C1057  C     0.42084   0.49998   0.83319   0.00000  Uiso   1.00
C1058  C     0.35470   0.52593   0.79719   0.00000  Uiso   1.00
C1059  C     0.62382   0.50022   0.83374   0.00000  Uiso   1.00
C1060  C     0.37614   0.49989   0.83311   0.00000  Uiso   1.00
C1061  C     0.47428   0.35806   0.80289   0.00000  Uiso   1.00
C1062  C     0.52573   0.64194   0.86377   0.00000  Uiso   1.00
C1063  C     0.52571   0.35818   0.86378   0.00000  Uiso   1.00
C1064  C     0.47430   0.64182   0.80287   0.00000  Uiso   1.00
C1065  C     0.37844   0.45039   0.90912   0.00000  Uiso   1.00
C1066  C     0.62157   0.54974   0.75766   0.00000  Uiso   1.00
C1067  C     0.62258   0.45088   0.91041   0.00000  Uiso   1.00
C1068  C     0.57914   0.50004   0.83348   0.00000  Uiso   1.00
C1069  C     0.37742   0.54997   0.75717   0.00000  Uiso   1.00
C1070  C     0.50012   0.49998   0.74021   0.00000  Uiso   1.00
C1071  C     0.50007   0.50001   0.92646   0.00000  Uiso   1.00
C1072  C     0.50019   0.49994   0.68851   0.00000  Uiso   1.00
C1073  C     0.50018   0.50001   0.97815   0.00000  Uiso   1.00
C1074  C     0.35508   0.47415   0.86938   0.00000  Uiso   1.00
C1075  C     0.64487   0.52603   0.79753   0.00000  Uiso   1.00
C1076  C     0.64524   0.47454   0.86999   0.00000  Uiso   1.00
Cu1077 Cu    0.50000   0.54689   0.83333   0.00000  Uiso   1.00
Cu1078 Cu    0.50000   0.45311   0.83333   0.00000  Uiso   1.00
H1079  H     0.45365   0.37666   0.77849   0.00000  Uiso   1.00
H1080  H     0.54636   0.62334   0.88817   0.00000  Uiso   1.00
H1081  H     0.54628   0.37688   0.88822   0.00000  Uiso   1.00
H1082  H     0.45374   0.62313   0.77841   0.00000  Uiso   1.00
H1083  H     0.41421   0.45714   0.96940   0.00000  Uiso   1.00
H1084  H     0.58496   0.54295   0.69812   0.00000  Uiso   1.00
H1085  H     0.61151   0.39134   0.94771   0.00000  Uiso   1.00
H1086  H     0.41736   0.54444   0.70102   0.00000  Uiso   1.00
N1087  N     0.50000   0.61736   0.83333   0.00000  Uiso   1.00
N1088  N     0.50000   0.38264   0.83333   0.00000  Uiso   1.00
O1089  O     0.43988   0.53958   0.83333   0.00000  Uiso   1.00
O1090  O     0.39938   0.47714   0.94421   0.00000  Uiso   1.00
O1091  O     0.62129   0.59242   0.75515   0.00000  Uiso   1.00
O1092  O     0.59944   0.52299   0.72363   0.00000  Uiso   1.00
O1093  O     0.59845   0.47315   0.93562   0.00000  Uiso   1.00
O1094  O     0.62866   0.40327   0.91931   0.00000  Uiso   1.00
O1095  O     0.37307   0.59197   0.75070   0.00000  Uiso   1.00
O1096  O     0.40393   0.52436   0.72714   0.00000  Uiso   1.00
O1097  O     0.56012   0.46042   0.83334   0.00000  Uiso   1.00
O1098  O     0.56012   0.53958   0.83334   0.00000  Uiso   1.00
O1099  O     0.43988   0.46042   0.83333   0.00000  Uiso   1.00
O1100  O     0.50000   0.53959   0.76280   0.00000  Uiso   1.00
O1101  O     0.50000   0.46041   0.90387   0.00000  Uiso   1.00
O1102  O     0.50000   0.53959   0.90387   0.00000  Uiso   1.00
O1103  O     0.50000   0.46041   0.76280   0.00000  Uiso   1.00
O1104  O     0.37996   0.40771   0.91048   0.00000  Uiso   1.00
C1105  C     0.75417   0.49998   0.83319   0.00000  Uiso   1.00
C1106  C     0.68804   0.52593   0.79719   0.00000  Uiso   1.00
C1107  C     0.95715   0.50022   0.83374   0.00000  Uiso   1.00
C1108  C     0.70947   0.49989   0.83311   0.00000  Uiso   1.00
C1109  C     0.80761   0.35806   0.80289   0.00000  Uiso   1.00
C1110  C     0.85906   0.64194   0.86377   0.00000  Uiso   1.00
C1111  C     0.85904   0.35818   0.86378   0.00000  Uiso   1.00
C1112  C     0.80763   0.64182   0.80287   0.00000  Uiso   1.00
C1113  C     0.71177   0.45039   0.90912   0.00000  Uiso   1.00
C1114  C     0.95490   0.54974   0.75766   0.00000  Uiso   1.00
C1115  C     0.95592   0.45088   0.91041   0.00000  Uiso   1.00
C1116  C     0.91248   0.50004   0.83348   0.00000  Uiso   1.00
C1117  C     0.71075   0.54997   0.75717   0.00000  Uiso   1.00
C1118  C     0.83346   0.49998   0.74021   0.00000  Uiso   1.00
C1119  C     0.83340   0.50001   0.92646   0.00000  Uiso   1.00
C1120  C     0.83352   0.49994   0.68851   0.00000  Uiso   1.00
C1121  C     0.83351   0.50001   0.97815   0.00000  Uiso   1.00
C1122  C     0.68841   0.47415   0.86938   0.00000  Uiso   1.00
C1123  C     0.97820   0.52603   0.79753   0.00000  Uiso   1.00
C1124  C     0.97857   0.47454   0.86999   0.00000  Uiso   1.00
Cu1125 Cu    0.83333   0.54689   0.83333   0.00000  Uiso   1.00
Cu1126 Cu    0.83333   0.45311   0.83333   0.00000  Uiso   1.00
H1127  H     0.78698   0.37666   0.77849   0.00000  Uiso   1.00
H1128  H     0.87969   0.62334   0.88817   0.00000  Uiso   1.00
H1129  H     0.87961   0.37688   0.88822   0.00000  Uiso   1.00
H1130  H     0.78708   0.62313   0.77841   0.00000  Uiso   1.00
H1131  H     0.74755   0.45714   0.96940   0.00000  Uiso   1.00
H1132  H     0.91829   0.54295   0.69812   0.00000  Uiso   1.00
H1133  H     0.94484   0.39134   0.94771   0.00000  Uiso   1.00
H1134  H     0.75069   0.54444   0.70102   0.00000  Uiso   1.00
N1135  N     0.83333   0.61736   0.83333   0.00000  Uiso   1.00
N1136  N     0.83333   0.38264   0.83333   0.00000  Uiso   1.00
O1137  O     0.77321   0.53958   0.83333   0.00000  Uiso   1.00
O1138  O     0.73271   0.47714   0.94421   0.00000  Uiso   1.00
O1139  O     0.95463   0.59242   0.75515   0.00000  Uiso   1.00
O1140  O     0.93277   0.52299   0.72363   0.00000  Uiso   1.00
O1141  O     0.93178   0.47315   0.93562   0.00000  Uiso   1.00
O1142  O     0.96199   0.40327   0.91931   0.00000  Uiso   1.00
O1143  O     0.70641   0.59197   0.75070   0.00000  Uiso   1.00
O1144  O     0.73726   0.52436   0.72714   0.00000  Uiso   1.00
O1145  O     0.89345   0.46042   0.83334   0.00000  Uiso   1.00
O1146  O     0.89345   0.53958   0.83334   0.00000  Uiso   1.00
O1147  O     0.77321   0.46042   0.83333   0.00000  Uiso   1.00
O1148  O     0.83333   0.53959   0.76280   0.00000  Uiso   1.00
O1149  O     0.83333   0.46041   0.90387   0.00000  Uiso   1.00
O1150  O     0.83333   0.53959   0.90387   0.00000  Uiso   1.00
O1151  O     0.83333   0.46041   0.76280   0.00000  Uiso   1.00
O1152  O     0.71330   0.40771   0.91048   0.00000  Uiso   1.00
C1153  C     0.08751   0.83331   0.83319   0.00000  Uiso   1.00
C1154  C     0.02137   0.85926   0.79719   0.00000  Uiso   1.00
C1155  C     0.29049   0.83356   0.83374   0.00000  Uiso   1.00
C1156  C     0.04280   0.83322   0.83311   0.00000  Uiso   1.00
C1157  C     0.14094   0.69140   0.80289   0.00000  Uiso   1.00
C1158  C     0.19240   0.97527   0.86377   0.00000  Uiso   1.00
C1159  C     0.19238   0.69151   0.86378   0.00000  Uiso   1.00
C1160  C     0.14096   0.97516   0.80287   0.00000  Uiso   1.00
C1161  C     0.04511   0.78372   0.90912   0.00000  Uiso   1.00
C1162  C     0.28823   0.88308   0.75766   0.00000  Uiso   1.00
C1163  C     0.28925   0.78422   0.91041   0.00000  Uiso   1.00
C1164  C     0.24581   0.83337   0.83348   0.00000  Uiso   1.00
C1165  C     0.04409   0.88331   0.75717   0.00000  Uiso   1.00
C1166  C     0.16679   0.83331   0.74021   0.00000  Uiso   1.00
C1167  C     0.16673   0.83335   0.92646   0.00000  Uiso   1.00
C1168  C     0.16686   0.83328   0.68851   0.00000  Uiso   1.00
C1169  C     0.16684   0.83334   0.97815   0.00000  Uiso   1.00
C1170  C     0.02175   0.80748   0.86938   0.00000  Uiso   1.00
C1171  C     0.31153   0.85936   0.79753   0.00000  Uiso   1.00
C1172  C     0.31191   0.80788   0.86999   0.00000  Uiso   1.00
Cu1173 Cu    0.16667   0.88022   0.83333   0.00000  Uiso   1.00
Cu1174 Cu    0.16667   0.78645   0.83333   0.00000  Uiso   1.00
H1175  H     0.12032   0.71000   0.77849   0.00000  Uiso   1.00
H1176  H     0.21303   0.95667   0.88817   0.00000  Uiso   1.00
H1177  H     0.21294   0.71021   0.88822   0.00000  Uiso   1.00
H1178  H     0.12041   0.95646   0.77841   0.00000  Uiso   1.00
H1179  H     0.08088   0.79048   0.96940   0.00000  Uiso   1.00
H1180  H     0.25162   0.87629   0.69812   0.00000  Uiso   1.00
H1181  H     0.27818   0.72467   0.94771   0.00000  Uiso   1.00
H1182  H     0.08402   0.87777   0.70102   0.00000  Uiso   1.00
N1183  N     0.16667   0.95069   0.83333   0.00000  Uiso   1.00
N1184  N     0.16667   0.71598   0.83333   0.00000  Uiso   1.00
O1185  O     0.10655   0.87291   0.83333   0.00000  Uiso   1.00
O1186  O     0.06605   0.81048   0.94421   0.00000  Uiso   1.00
O1187  O     0.28796   0.92575   0.75515   0.00000  Uiso   1.00
O1188  O     0.26610   0.85632   0.72363   0.00000  Uiso   1.00
O1189  O     0.26511   0.80648   0.93562   0.00000  Uiso   1.00
O1190  O     0.29532   0.73661   0.91931   0.00000  Uiso   1.00
O1191  O     0.03974   0.92531   0.75070   0.00000  Uiso   1.00
O1192  O     0.07060   0.85770   0.72714   0.00000  Uiso   1.00
O1193  O     0.22679   0.79375   0.83334   0.00000  Uiso   1.00
O1194  O     0.22679   0.87291   0.83334   0.00000  Uiso   1.00
O1195  O     0.10655   0.79375   0.83333   0.00000  Uiso   1.00
O1196  O     0.16667   0.87292   0.76280   0.00000  Uiso   1.00
O1197  O     0.16667   0.79375   0.90387   0.00000  Uiso   1.00
O1198  O     0.16667   0.87292   0.90387   0.00000  Uiso   1.00
O1199  O     0.16667   0.79375   0.76280   0.00000  Uiso   1.00
O1200  O     0.04663   0.74104   0.91048   0.00000  Uiso   1.00
C1201  C     0.42084   0.83331   0.83319   0.00000  Uiso   1.00
C1202  C     0.35470   0.85926   0.79719   0.00000  Uiso   1.00
C1203  C     0.62382   0.83356   0.83374   0.00000  Uiso   1.00
C1204  C     0.37614   0.83322   0.83311   0.00000  Uiso   1.00
C1205  C     0.47428   0.69140   0.80289   0.00000  Uiso   1.00
C1206  C     0.52573   0.97527   0.86377   0.00000  Uiso   1.00
C1207  C     0.52571   0.69151   0.86378   0.00000  Uiso   1.00
C1208  C     0.47430   0.97516   0.80287   0.00000  Uiso   1.00
C1209  C     0.37844   0.78372   0.90912   0.00000  Uiso   1.00
C1210  C     0.62157   0.88308   0.75766   0.00000  Uiso   1.00
C1211  C     0.62258   0.78422   0.91041   0.00000  Uiso   1.00
C1212  C     0.57914   0.83337   0.83348   0.00000  Uiso   1.00
C1213  C     0.37742   0.88331   0.75717   0.00000  Uiso   1.00
C1214  C     0.50012   0.83331   0.74021   0.00000  Uiso   1.00
C1215  C     0.50007   0.83335   0.92646   0.00000  Uiso   1.00
C1216  C     0.50019   0.83328   0.68851   0.00000  Uiso   1.00
C1217  C     0.50018   0.83334   0.97815   0.00000  Uiso   1.00
C1218  C     0.35508   0.80748   0.86938   0.00000  Uiso   1.00
C1219  C     0.64487   0.85936   0.79753   0.00000  Uiso   1.00
C1220  C     0.64524   0.80788   0.86999   0.00000  Uiso   1.00
Cu1221 Cu    0.50000   0.88022   0.83333   0.00000  Uiso   1.00
Cu1222 Cu    0.50000   0.78645   0.83333   0.00000  Uiso   1.00
H1223  H     0.45365   0.71000   0.77849   0.00000  Uiso   1.00
H1224  H     0.54636   0.95667   0.88817   0.00000  Uiso   1.00
H1225  H     0.54628   0.71021   0.88822   0.00000  Uiso   1.00
H1226  H     0.45374   0.95646   0.77841   0.00000  Uiso   1.00
H1227  H     0.41421   0.79048   0.96940   0.00000  Uiso   1.00
H1228  H     0.58496   0.87629   0.69812   0.00000  Uiso   1.00
H1229  H     0.61151   0.72467   0.94771   0.00000  Uiso   1.00
H1230  H     0.41736   0.87777   0.70102   0.00000  Uiso   1.00
N1231  N     0.50000   0.95069   0.83333   0.00000  Uiso   1.00
N1232  N     0.50000   0.71598   0.83333   0.00000  Uiso   1.00
O1233  O     0.43988   0.87291   0.83333   0.00000  Uiso   1.00
O1234  O     0.39938   0.81048   0.94421   0.00000  Uiso   1.00
O1235  O     0.62129   0.92575   0.75515   0.00000  Uiso   1.00
O1236  O     0.59944   0.85632   0.72363   0.00000  Uiso   1.00
O1237  O     0.59845   0.80648   0.93562   0.00000  Uiso   1.00
O1238  O     0.62866   0.73661   0.91931   0.00000  Uiso   1.00
O1239  O     0.37307   0.92531   0.75070   0.00000  Uiso   1.00
O1240  O     0.40393   0.85770   0.72714   0.00000  Uiso   1.00
O1241  O     0.56012   0.79375   0.83334   0.00000  Uiso   1.00
O1242  O     0.56012   0.87291   0.83334   0.00000  Uiso   1.00
O1243  O     0.43988   0.79375   0.83333   0.00000  Uiso   1.00
O1244  O     0.50000   0.87292   0.76280   0.00000  Uiso   1.00
O1245  O     0.50000   0.79375   0.90387   0.00000  Uiso   1.00
O1246  O     0.50000   0.87292   0.90387   0.00000  Uiso   1.00
O1247  O     0.50000   0.79375   0.76280   0.00000  Uiso   1.00
O1248  O     0.37996   0.74104   0.91048   0.00000  Uiso   1.00
C1249  C     0.75417   0.83331   0.83319   0.00000  Uiso   1.00
C1250  C     0.68804   0.85926   0.79719   0.00000  Uiso   1.00
C1251  C     0.95715   0.83356   0.83374   0.00000  Uiso   1.00
C1252  C     0.70947   0.83322   0.83311   0.00000  Uiso   1.00
C1253  C     0.80761   0.69140   0.80289   0.00000  Uiso   1.00
C1254  C     0.85906   0.97527   0.86377   0.00000  Uiso   1.00
C1255  C     0.85904   0.69151   0.86378   0.00000  Uiso   1.00
C1256  C     0.80763   0.97516   0.80287   0.00000  Uiso   1.00
C1257  C     0.71177   0.78372   0.90912   0.00000  Uiso   1.00
C1258  C     0.95490   0.88308   0.75766   0.00000  Uiso   1.00
C1259  C     0.95592   0.78422   0.91041   0.00000  Uiso   1.00
C1260  C     0.91248   0.83337   0.83348   0.00000  Uiso   1.00
C1261  C     0.71075   0.88331   0.75717   0.00000  Uiso   1.00
C1262  C     0.83346   0.83331   0.74021   0.00000  Uiso   1.00
C1263  C     0.83340   0.83335   0.92646   0.00000  Uiso   1.00
C1264  C     0.83352   0.83328   0.68851   0.00000  Uiso   1.00
C1265  C     0.83351   0.83334   0.97815   0.00000  Uiso   1.00
C1266  C     0.68841   0.80748   0.86938   0.00000  Uiso   1.00
C1267  C     0.97820   0.85936   0.79753   0.00000  Uiso   1.00
C1268  C     0.97857   0.80788   0.86999   0.00000  Uiso   1.00
Cu1269 Cu    0.83333   0.88022   0.83333   0.00000  Uiso   1.00
Cu1270 Cu    0.83333   0.78645   0.83333   0.00000  Uiso   1.00
H1271  H     0.78698   0.71000   0.77849   0.00000  Uiso   1.00
H1272  H     0.87969   0.95667   0.88817   0.00000  Uiso   1.00
H1273  H     0.87961   0.71021   0.88822   0.00000  Uiso   1.00
H1274  H     0.78708   0.95646   0.77841   0.00000  Uiso   1.00
H1275  H     0.74755   0.79048   0.96940   0.00000  Uiso   1.00
H1276  H     0.91829   0.87629   0.69812   0.00000  Uiso   1.00
H1277  H     0.94484   0.72467   0.94771   0.00000  Uiso   1.00
H1278  H     0.75069   0.87777   0.70102   0.00000  Uiso   1.00
N1279  N     0.83333   0.95069   0.83333   0.00000  Uiso   1.00
N1280  N     0.83333   0.71598   0.83333   0.00000  Uiso   1.00
O1281  O     0.77321   0.87291   0.83333   0.00000  Uiso   1.00
O1282  O     0.73271   0.81048   0.94421   0.00000  Uiso   1.00
O1283  O     0.95463   0.92575   0.75515   0.00000  Uiso   1.00
O1284  O     0.93277   0.85632   0.72363   0.00000  Uiso   1.00
O1285  O     0.93178   0.80648   0.93562   0.00000  Uiso   1.00
O1286  O     0.96199   0.73661   0.91931   0.00000  Uiso   1.00
O1287  O     0.70641   0.92531   0.75070   0.00000  Uiso   1.00
O1288  O     0.73726   0.85770   0.72714   0.00000  Uiso   1.00
O1289  O     0.89345   0.79375   0.83334   0.00000  Uiso   1.00
O1290  O     0.89345   0.87291   0.83334   0.00000  Uiso   1.00
O1291  O     0.77321   0.79375   0.83333   0.00000  Uiso   1.00
O1292  O     0.83333   0.87292   0.76280   0.00000  Uiso   1.00
O1293  O     0.83333   0.79375   0.90387   0.00000  Uiso   1.00
O1294  O     0.83333   0.87292   0.90387   0.00000  Uiso   1.00
O1295  O     0.83333   0.79375   0.76280   0.00000  Uiso   1.00
O1296  O     0.71330   0.74104   0.91048   0.00000  Uiso   1.00
loop_
_geom_bond_atom_site_label_1
_geom_bond_atom_site_label_2
_geom_bond_distance
_geom_bond_site_symmetry_2
_ccdc_geom_bond_type
C1     C4      1.451   .     S
C1     O33     1.290   .     A
C1     O43     1.290   .     A
C2     C4      1.411   .     A
C2     C13     1.487   .     S
C2     C115    1.402   1_455 S
C3     C19     1.410   .     A
C3     C20     1.412   .     A
C3     C12     1.450   .     S
C4     C18     1.411   .     A
C5     N32     1.367   .     A
C5     H23     1.082   .     S
C5     C296    1.418   1_545 S
C6     H24     1.082   .     S
C6     N31     1.367   .     A
C6     C151    1.418   .     S
C7     N32     1.367   .     A
C7     H25     1.081   .     S
C7     C294    1.418   1_545 S
C8     H26     1.081   .     S
C8     N31     1.367   .     A
C8     C149    1.418   .     S
C9     O48     1.222   .     D
C9     O34     1.397   .     S
C9     C18     1.484   .     S
C10    C19     1.485   .     S
C10    O35     1.222   .     D
C10    O36     1.397   .     S
C11    O38     1.397   .     S
C11    C20     1.489   .     S
C11    O37     1.223   .     D
C12    O41     1.290   .     A
C12    O42     1.289   .     A
C13    O39     1.222   .     D
C13    O40     1.397   .     S
C14    C16     1.407   .     S
C14    O44     1.288   .     A
C14    O47     1.288   .     A
C15    O45     1.288   .     A
C15    O46     1.288   .     A
C15    C17     1.407   .     S
C16    C881    1.189   1_554 S
C17    C448    1.189   .     S
C18    C116    1.402   1_455 S
C19    C50     1.402   .     S
C20    C66     1.402   .     S
Cu21   O44     1.931   .     S
Cu21   Cu22    2.682   .     S
Cu21   N31     2.015   .     S
Cu21   O33     1.963   .     S
Cu21   O42     1.963   .     S
Cu21   O46     1.932   .     S
Cu22   O43     1.963   .     S
Cu22   O47     1.932   .     S
Cu22   N32     2.015   .     S
Cu22   O41     1.963   .     S
Cu22   O45     1.931   .     S
H27    O34     1.014   .     S
H28    O36     1.014   .     S
H29    O38     1.014   .     S
H30    O40     1.014   .     S
C49    C52     1.451   .     S
C49    O81     1.290   .     A
C49    O91     1.290   .     A
C50    C52     1.411   .     A
C50    C61     1.487   .     S
C51    C67     1.410   .     A
C51    C68     1.412   .     A
C51    C60     1.450   .     S
C52    C66     1.411   .     A
C53    N80     1.367   .     A
C53    H71     1.082   .     S
C53    C344    1.418   1_545 S
C54    H72     1.082   .     S
C54    N79     1.367   .     A
C54    C199    1.418   .     S
C55    N80     1.367   .     A
C55    H73     1.081   .     S
C55    C342    1.418   1_545 S
C56    H74     1.081   .     S
C56    N79     1.367   .     A
C56    C197    1.418   .     S
C57    O96     1.222   .     D
C57    O82     1.397   .     S
C57    C66     1.484   .     S
C58    C67     1.485   .     S
C58    O83     1.222   .     D
C58    O84     1.397   .     S
C59    O86     1.397   .     S
C59    C68     1.489   .     S
C59    O85     1.223   .     D
C60    O89     1.290   .     A
C60    O90     1.289   .     A
C61    O87     1.222   .     D
C61    O88     1.397   .     S
C62    C64     1.407   .     S
C62    O92     1.288   .     A
C62    O95     1.288   .     A
C63    O93     1.288   .     A
C63    O94     1.288   .     A
C63    C65     1.407   .     S
C64    C929    1.189   1_554 S
C65    C496    1.189   .     S
C67    C98     1.402   .     S
C68    C114    1.402   .     S
Cu69   O92     1.931   .     S
Cu69   Cu70    2.682   .     S
Cu69   N79     2.015   .     S
Cu69   O81     1.963   .     S
Cu69   O90     1.963   .     S
Cu69   O94     1.932   .     S
Cu70   O91     1.963   .     S
Cu70   O95     1.932   .     S
Cu70   N80     2.015   .     S
Cu70   O89     1.963   .     S
Cu70   O93     1.931   .     S
H75    O82     1.014   .     S
H76    O84     1.014   .     S
H77    O86     1.014   .     S
H78    O88     1.014   .     S
C97    C100    1.451   .     S
C97    O129    1.290   .     A
C97    O139    1.290   .     A
C98    C100    1.411   .     A
C98    C109    1.487   .     S
C99    C115    1.410   .     A
C99    C116    1.412   .     A
C99    C108    1.450   .     S
C100   C114    1.411   .     A
C101   N128    1.367   .     A
C101   H119    1.082   .     S
C101   C392    1.418   1_545 S
C102   H120    1.082   .     S
C102   N127    1.367   .     A
C102   C247    1.418   .     S
C103   N128    1.367   .     A
C103   H121    1.081   .     S
C103   C390    1.418   1_545 S
C104   H122    1.081   .     S
C104   N127    1.367   .     A
C104   C245    1.418   .     S
C105   O144    1.222   .     D
C105   O130    1.397   .     S
C105   C114    1.484   .     S
C106   C115    1.485   .     S
C106   O131    1.222   .     D
C106   O132    1.397   .     S
C107   O134    1.397   .     S
C107   C116    1.489   .     S
C107   O133    1.223   .     D
C108   O137    1.290   .     A
C108   O138    1.289   .     A
C109   O135    1.222   .     D
C109   O136    1.397   .     S
C110   C112    1.407   .     S
C110   O140    1.288   .     A
C110   O143    1.288   .     A
C111   O141    1.288   .     A
C111   O142    1.288   .     A
C111   C113    1.407   .     S
C112   C977    1.189   1_554 S
C113   C544    1.189   .     S
C115   C2      1.402   1_655 S
C116   C18     1.402   1_655 S
Cu117  O140    1.931   .     S
Cu117  Cu118   2.682   .     S
Cu117  N127    2.015   .     S
Cu117  O129    1.963   .     S
Cu117  O138    1.963   .     S
Cu117  O142    1.932   .     S
Cu118  O139    1.963   .     S
Cu118  O143    1.932   .     S
Cu118  N128    2.015   .     S
Cu118  O137    1.963   .     S
Cu118  O141    1.931   .     S
H123   O130    1.014   .     S
H124   O132    1.014   .     S
H125   O134    1.014   .     S
H126   O136    1.014   .     S
C145   C148    1.451   .     S
C145   O177    1.290   .     A
C145   O187    1.290   .     A
C146   C148    1.411   .     A
C146   C157    1.487   .     S
C146   C259    1.402   1_455 S
C147   C163    1.410   .     A
C147   C164    1.412   .     A
C147   C156    1.450   .     S
C148   C162    1.411   .     A
C149   N176    1.367   .     A
C149   H167    1.082   .     S
C150   H168    1.082   .     S
C150   N175    1.367   .     A
C150   C295    1.418   .     S
C151   N176    1.367   .     A
C151   H169    1.081   .     S
C152   H170    1.081   .     S
C152   N175    1.367   .     A
C152   C293    1.418   .     S
C153   O192    1.222   .     D
C153   O178    1.397   .     S
C153   C162    1.484   .     S
C154   C163    1.485   .     S
C154   O179    1.222   .     D
C154   O180    1.397   .     S
C155   O182    1.397   .     S
C155   C164    1.489   .     S
C155   O181    1.223   .     D
C156   O185    1.290   .     A
C156   O186    1.289   .     A
C157   O183    1.222   .     D
C157   O184    1.397   .     S
C158   C160    1.407   .     S
C158   O188    1.288   .     A
C158   O191    1.288   .     A
C159   O189    1.288   .     A
C159   O190    1.288   .     A
C159   C161    1.407   .     S
C160   C1025   1.189   1_554 S
C161   C592    1.189   .     S
C162   C260    1.402   1_455 S
C163   C194    1.402   .     S
C164   C210    1.402   .     S
Cu165  O188    1.931   .     S
Cu165  Cu166   2.682   .     S
Cu165  N175    2.015   .     S
Cu165  O177    1.963   .     S
Cu165  O186    1.963   .     S
Cu165  O190    1.932   .     S
Cu166  O187    1.963   .     S
Cu166  O191    1.932   .     S
Cu166  N176    2.015   .     S
Cu166  O185    1.963   .     S
Cu166  O189    1.931   .     S
H171   O178    1.014   .     S
H172   O180    1.014   .     S
H173   O182    1.014   .     S
H174   O184    1.014   .     S
C193   C196    1.451   .     S
C193   O225    1.290   .     A
C193   O235    1.290   .     A
C194   C196    1.411   .     A
C194   C205    1.487   .     S
C195   C211    1.410   .     A
C195   C212    1.412   .     A
C195   C204    1.450   .     S
C196   C210    1.411   .     A
C197   N224    1.367   .     A
C197   H215    1.082   .     S
C198   H216    1.082   .     S
C198   N223    1.367   .     A
C198   C343    1.418   .     S
C199   N224    1.367   .     A
C199   H217    1.081   .     S
C200   H218    1.081   .     S
C200   N223    1.367   .     A
C200   C341    1.418   .     S
C201   O240    1.222   .     D
C201   O226    1.397   .     S
C201   C210    1.484   .     S
C202   C211    1.485   .     S
C202   O227    1.222   .     D
C202   O228    1.397   .     S
C203   O230    1.397   .     S
C203   C212    1.489   .     S
C203   O229    1.223   .     D
C204   O233    1.290   .     A
C204   O234    1.289   .     A
C205   O231    1.222   .     D
C205   O232    1.397   .     S
C206   C208    1.407   .     S
C206   O236    1.288   .     A
C206   O239    1.288   .     A
C207   O237    1.288   .     A
C207   O238    1.288   .     A
C207   C209    1.407   .     S
C208   C1073   1.189   1_554 S
C209   C640    1.189   .     S
C211   C242    1.402   .     S
C212   C258    1.402   .     S
Cu213  O236    1.931   .     S
Cu213  Cu214   2.682   .     S
Cu213  N223    2.015   .     S
Cu213  O225    1.963   .     S
Cu213  O234    1.963   .     S
Cu213  O238    1.932   .     S
Cu214  O235    1.963   .     S
Cu214  O239    1.932   .     S
Cu214  N224    2.015   .     S
Cu214  O233    1.963   .     S
Cu214  O237    1.931   .     S
H219   O226    1.014   .     S
H220   O228    1.014   .     S
H221   O230    1.014   .     S
H222   O232    1.014   .     S
C241   C244    1.451   .     S
C241   O273    1.290   .     A
C241   O283    1.290   .     A
C242   C244    1.411   .     A
C242   C253    1.487   .     S
C243   C259    1.410   .     A
C243   C260    1.412   .     A
C243   C252    1.450   .     S
C244   C258    1.411   .     A
C245   N272    1.367   .     A
C245   H263    1.082   .     S
C246   H264    1.082   .     S
C246   N271    1.367   .     A
C246   C391    1.418   .     S
C247   N272    1.367   .     A
C247   H265    1.081   .     S
C248   H266    1.081   .     S
C248   N271    1.367   .     A
C248   C389    1.418   .     S
C249   O288    1.222   .     D
C249   O274    1.397   .     S
C249   C258    1.484   .     S
C250   C259    1.485   .     S
C250   O275    1.222   .     D
C250   O276    1.397   .     S
C251   O278    1.397   .     S
C251   C260    1.489   .     S
C251   O277    1.223   .     D
C252   O281    1.290   .     A
C252   O282    1.289   .     A
C253   O279    1.222   .     D
C253   O280    1.397   .     S
C254   C256    1.407   .     S
C254   O284    1.288   .     A
C254   O287    1.288   .     A
C255   O285    1.288   .     A
C255   O286    1.288   .     A
C255   C257    1.407   .     S
C256   C1121   1.189   1_554 S
C257   C688    1.189   .     S
C259   C146    1.402   1_655 S
C260   C162    1.402   1_655 S
Cu261  O284    1.931   .     S
Cu261  Cu262   2.682   .     S
Cu261  N271    2.015   .     S
Cu261  O273    1.963   .     S
Cu261  O282    1.963   .     S
Cu261  O286    1.932   .     S
Cu262  O283    1.963   .     S
Cu262  O287    1.932   .     S
Cu262  N272    2.015   .     S
Cu262  O281    1.963   .     S
Cu262  O285    1.931   .     S
H267   O274    1.014   .     S
H268   O276    1.014   .     S
H269   O278    1.014   .     S
H270   O280    1.014   .     S
C289   C292    1.451   .     S
C289   O321    1.290   .     A
C289   O331    1.290   .     A
C290   C292    1.411   .     A
C290   C301    1.487   .     S
C290   C403    1.402   1_455 S
C291   C307    1.410   .     A
C291   C308    1.412   .     A
C291   C300    1.450   .     S
C292   C306    1.411   .     A
C293   N320    1.367   .     A
C293   H311    1.082   .     S
C294   H312    1.082   .     S
C294   N319    1.367   .     A
C294   C7      1.418   1_565 S
C295   N320    1.367   .     A
C295   H313    1.081   .     S
C296   H314    1.081   .     S
C296   N319    1.367   .     A
C296   C5      1.418   1_565 S
C297   O336    1.222   .     D
C297   O322    1.397   .     S
C297   C306    1.484   .     S
C298   C307    1.485   .     S
C298   O323    1.222   .     D
C298   O324    1.397   .     S
C299   O326    1.397   .     S
C299   C308    1.489   .     S
C299   O325    1.223   .     D
C300   O329    1.290   .     A
C300   O330    1.289   .     A
C301   O327    1.222   .     D
C301   O328    1.397   .     S
C302   C304    1.407   .     S
C302   O332    1.288   .     A
C302   O335    1.288   .     A
C303   O333    1.288   .     A
C303   O334    1.288   .     A
C303   C305    1.407   .     S
C304   C1169   1.189   1_554 S
C305   C736    1.189   .     S
C306   C404    1.402   1_455 S
C307   C338    1.402   .     S
C308   C354    1.402   .     S
Cu309  O332    1.931   .     S
Cu309  Cu310   2.682   .     S
Cu309  N319    2.015   .     S
Cu309  O321    1.963   .     S
Cu309  O330    1.963   .     S
Cu309  O334    1.932   .     S
Cu310  O331    1.963   .     S
Cu310  O335    1.932   .     S
Cu310  N320    2.015   .     S
Cu310  O329    1.963   .     S
Cu310  O333    1.931   .     S
H315   O322    1.014   .     S
H316   O324    1.014   .     S
H317   O326    1.014   .     S
H318   O328    1.014   .     S
C337   C340    1.451   .     S
C337   O369    1.290   .     A
C337   O379    1.290   .     A
C338   C340    1.411   .     A
C338   C349    1.487   .     S
C339   C355    1.410   .     A
C339   C356    1.412   .     A
C339   C348    1.450   .     S
C340   C354    1.411   .     A
C341   N368    1.367   .     A
C341   H359    1.082   .     S
C342   H360    1.082   .     S
C342   N367    1.367   .     A
C342   C55     1.418   1_565 S
C343   N368    1.367   .     A
C343   H361    1.081   .     S
C344   H362    1.081   .     S
C344   N367    1.367   .     A
C344   C53     1.418   1_565 S
C345   O384    1.222   .     D
C345   O370    1.397   .     S
C345   C354    1.484   .     S
C346   C355    1.485   .     S
C346   O371    1.222   .     D
C346   O372    1.397   .     S
C347   O374    1.397   .     S
C347   C356    1.489   .     S
C347   O373    1.223   .     D
C348   O377    1.290   .     A
C348   O378    1.289   .     A
C349   O375    1.222   .     D
C349   O376    1.397   .     S
C350   C352    1.407   .     S
C350   O380    1.288   .     A
C350   O383    1.288   .     A
C351   O381    1.288   .     A
C351   O382    1.288   .     A
C351   C353    1.407   .     S
C352   C1217   1.189   1_554 S
C353   C784    1.189   .     S
C355   C386    1.402   .     S
C356   C402    1.402   .     S
Cu357  O380    1.931   .     S
Cu357  Cu358   2.682   .     S
Cu357  N367    2.015   .     S
Cu357  O369    1.963   .     S
Cu357  O378    1.963   .     S
Cu357  O382    1.932   .     S
Cu358  O379    1.963   .     S
Cu358  O383    1.932   .     S
Cu358  N368    2.015   .     S
Cu358  O377    1.963   .     S
Cu358  O381    1.931   .     S
H363   O370    1.014   .     S
H364   O372    1.014   .     S
H365   O374    1.014   .     S
H366   O376    1.014   .     S
C385   C388    1.451   .     S
C385   O417    1.290   .     A
C385   O427    1.290   .     A
C386   C388    1.411   .     A
C386   C397    1.487   .     S
C387   C403    1.410   .     A
C387   C404    1.412   .     A
C387   C396    1.450   .     S
C388   C402    1.411   .     A
C389   N416    1.367   .     A
C389   H407    1.082   .     S
C390   H408    1.082   .     S
C390   N415    1.367   .     A
C390   C103    1.418   1_565 S
C391   N416    1.367   .     A
C391   H409    1.081   .     S
C392   H410    1.081   .     S
C392   N415    1.367   .     A
C392   C101    1.418   1_565 S
C393   O432    1.222   .     D
C393   O418    1.397   .     S
C393   C402    1.484   .     S
C394   C403    1.485   .     S
C394   O419    1.222   .     D
C394   O420    1.397   .     S
C395   O422    1.397   .     S
C395   C404    1.489   .     S
C395   O421    1.223   .     D
C396   O425    1.290   .     A
C396   O426    1.289   .     A
C397   O423    1.222   .     D
C397   O424    1.397   .     S
C398   C400    1.407   .     S
C398   O428    1.288   .     A
C398   O431    1.288   .     A
C399   O429    1.288   .     A
C399   O430    1.288   .     A
C399   C401    1.407   .     S
C400   C1265   1.189   1_554 S
C401   C832    1.189   .     S
C403   C290    1.402   1_655 S
C404   C306    1.402   1_655 S
Cu405  O428    1.931   .     S
Cu405  Cu406   2.682   .     S
Cu405  N415    2.015   .     S
Cu405  O417    1.963   .     S
Cu405  O426    1.963   .     S
Cu405  O430    1.932   .     S
Cu406  O427    1.963   .     S
Cu406  O431    1.932   .     S
Cu406  N416    2.015   .     S
Cu406  O425    1.963   .     S
Cu406  O429    1.931   .     S
H411   O418    1.014   .     S
H412   O420    1.014   .     S
H413   O422    1.014   .     S
H414   O424    1.014   .     S
C433   C436    1.451   .     S
C433   O465    1.290   .     A
C433   O475    1.290   .     A
C434   C436    1.411   .     A
C434   C445    1.487   .     S
C434   C547    1.402   1_455 S
C435   C451    1.410   .     A
C435   C452    1.412   .     A
C435   C444    1.450   .     S
C436   C450    1.411   .     A
C437   N464    1.367   .     A
C437   H455    1.082   .     S
C437   C728    1.418   1_545 S
C438   H456    1.082   .     S
C438   N463    1.367   .     A
C438   C583    1.418   .     S
C439   N464    1.367   .     A
C439   H457    1.081   .     S
C439   C726    1.418   1_545 S
C440   H458    1.081   .     S
C440   N463    1.367   .     A
C440   C581    1.418   .     S
C441   O480    1.222   .     D
C441   O466    1.397   .     S
C441   C450    1.484   .     S
C442   C451    1.485   .     S
C442   O467    1.222   .     D
C442   O468    1.397   .     S
C443   O470    1.397   .     S
C443   C452    1.489   .     S
C443   O469    1.223   .     D
C444   O473    1.290   .     A
C444   O474    1.289   .     A
C445   O471    1.222   .     D
C445   O472    1.397   .     S
C446   C448    1.407   .     S
C446   O476    1.288   .     A
C446   O479    1.288   .     A
C447   O477    1.288   .     A
C447   O478    1.288   .     A
C447   C449    1.407   .     S
C449   C880    1.189   .     S
C450   C548    1.402   1_455 S
C451   C482    1.402   .     S
C452   C498    1.402   .     S
Cu453  O476    1.931   .     S
Cu453  Cu454   2.682   .     S
Cu453  N463    2.015   .     S
Cu453  O465    1.963   .     S
Cu453  O474    1.963   .     S
Cu453  O478    1.932   .     S
Cu454  O475    1.963   .     S
Cu454  O479    1.932   .     S
Cu454  N464    2.015   .     S
Cu454  O473    1.963   .     S
Cu454  O477    1.931   .     S
H459   O466    1.014   .     S
H460   O468    1.014   .     S
H461   O470    1.014   .     S
H462   O472    1.014   .     S
C481   C484    1.451   .     S
C481   O513    1.290   .     A
C481   O523    1.290   .     A
C482   C484    1.411   .     A
C482   C493    1.487   .     S
C483   C499    1.410   .     A
C483   C500    1.412   .     A
C483   C492    1.450   .     S
C484   C498    1.411   .     A
C485   N512    1.367   .     A
C485   H503    1.082   .     S
C485   C776    1.418   1_545 S
C486   H504    1.082   .     S
C486   N511    1.367   .     A
C486   C631    1.418   .     S
C487   N512    1.367   .     A
C487   H505    1.081   .     S
C487   C774    1.418   1_545 S
C488   H506    1.081   .     S
C488   N511    1.367   .     A
C488   C629    1.418   .     S
C489   O528    1.222   .     D
C489   O514    1.397   .     S
C489   C498    1.484   .     S
C490   C499    1.485   .     S
C490   O515    1.222   .     D
C490   O516    1.397   .     S
C491   O518    1.397   .     S
C491   C500    1.489   .     S
C491   O517    1.223   .     D
C492   O521    1.290   .     A
C492   O522    1.289   .     A
C493   O519    1.222   .     D
C493   O520    1.397   .     S
C494   C496    1.407   .     S
C494   O524    1.288   .     A
C494   O527    1.288   .     A
C495   O525    1.288   .     A
C495   O526    1.288   .     A
C495   C497    1.407   .     S
C497   C928    1.189   .     S
C499   C530    1.402   .     S
C500   C546    1.402   .     S
Cu501  O524    1.931   .     S
Cu501  Cu502   2.682   .     S
Cu501  N511    2.015   .     S
Cu501  O513    1.963   .     S
Cu501  O522    1.963   .     S
Cu501  O526    1.932   .     S
Cu502  O523    1.963   .     S
Cu502  O527    1.932   .     S
Cu502  N512    2.015   .     S
Cu502  O521    1.963   .     S
Cu502  O525    1.931   .     S
H507   O514    1.014   .     S
H508   O516    1.014   .     S
H509   O518    1.014   .     S
H510   O520    1.014   .     S
C529   C532    1.451   .     S
C529   O561    1.290   .     A
C529   O571    1.290   .     A
C530   C532    1.411   .     A
C530   C541    1.487   .     S
C531   C547    1.410   .     A
C531   C548    1.412   .     A
C531   C540    1.450   .     S
C532   C546    1.411   .     A
C533   N560    1.367   .     A
C533   H551    1.082   .     S
C533   C824    1.418   1_545 S
C534   H552    1.082   .     S
C534   N559    1.367   .     A
C534   C679    1.418   .     S
C535   N560    1.367   .     A
C535   H553    1.081   .     S
C535   C822    1.418   1_545 S
C536   H554    1.081   .     S
C536   N559    1.367   .     A
C536   C677    1.418   .     S
C537   O576    1.222   .     D
C537   O562    1.397   .     S
C537   C546    1.484   .     S
C538   C547    1.485   .     S
C538   O563    1.222   .     D
C538   O564    1.397   .     S
C539   O566    1.397   .     S
C539   C548    1.489   .     S
C539   O565    1.223   .     D
C540   O569    1.290   .     A
C540   O570    1.289   .     A
C541   O567    1.222   .     D
C541   O568    1.397   .     S
C542   C544    1.407   .     S
C542   O572    1.288   .     A
C542   O575    1.288   .     A
C543   O573    1.288   .     A
C543   O574    1.288   .     A
C543   C545    1.407   .     S
C545   C976    1.189   .     S
C547   C434    1.402   1_655 S
C548   C450    1.402   1_655 S
Cu549  O572    1.931   .     S
Cu549  Cu550   2.682   .     S
Cu549  N559    2.015   .     S
Cu549  O561    1.963   .     S
Cu549  O570    1.963   .     S
Cu549  O574    1.932   .     S
Cu550  O571    1.963   .     S
Cu550  O575    1.932   .     S
Cu550  N560    2.015   .     S
Cu550  O569    1.963   .     S
Cu550  O573    1.931   .     S
H555   O562    1.014   .     S
H556   O564    1.014   .     S
H557   O566    1.014   .     S
H558   O568    1.014   .     S
C577   C580    1.451   .     S
C577   O609    1.290   .     A
C577   O619    1.290   .     A
C578   C580    1.411   .     A
C578   C589    1.487   .     S
C578   C691    1.402   1_455 S
C579   C595    1.410   .     A
C579   C596    1.412   .     A
C579   C588    1.450   .     S
C580   C594    1.411   .     A
C581   N608    1.367   .     A
C581   H599    1.082   .     S
C582   H600    1.082   .     S
C582   N607    1.367   .     A
C582   C727    1.418   .     S
C583   N608    1.367   .     A
C583   H601    1.081   .     S
C584   H602    1.081   .     S
C584   N607    1.367   .     A
C584   C725    1.418   .     S
C585   O624    1.222   .     D
C585   O610    1.397   .     S
C585   C594    1.484   .     S
C586   C595    1.485   .     S
C586   O611    1.222   .     D
C586   O612    1.397   .     S
C587   O614    1.397   .     S
C587   C596    1.489   .     S
C587   O613    1.223   .     D
C588   O617    1.290   .     A
C588   O618    1.289   .     A
C589   O615    1.222   .     D
C589   O616    1.397   .     S
C590   C592    1.407   .     S
C590   O620    1.288   .     A
C590   O623    1.288   .     A
C591   O621    1.288   .     A
C591   O622    1.288   .     A
C591   C593    1.407   .     S
C593   C1024   1.189   .     S
C594   C692    1.402   1_455 S
C595   C626    1.402   .     S
C596   C642    1.402   .     S
Cu597  O620    1.931   .     S
Cu597  Cu598   2.682   .     S
Cu597  N607    2.015   .     S
Cu597  O609    1.963   .     S
Cu597  O618    1.963   .     S
Cu597  O622    1.932   .     S
Cu598  O619    1.963   .     S
Cu598  O623    1.932   .     S
Cu598  N608    2.015   .     S
Cu598  O617    1.963   .     S
Cu598  O621    1.931   .     S
H603   O610    1.014   .     S
H604   O612    1.014   .     S
H605   O614    1.014   .     S
H606   O616    1.014   .     S
C625   C628    1.451   .     S
C625   O657    1.290   .     A
C625   O667    1.290   .     A
C626   C628    1.411   .     A
C626   C637    1.487   .     S
C627   C643    1.410   .     A
C627   C644    1.412   .     A
C627   C636    1.450   .     S
C628   C642    1.411   .     A
C629   N656    1.367   .     A
C629   H647    1.082   .     S
C630   H648    1.082   .     S
C630   N655    1.367   .     A
C630   C775    1.418   .     S
C631   N656    1.367   .     A
C631   H649    1.081   .     S
C632   H650    1.081   .     S
C632   N655    1.367   .     A
C632   C773    1.418   .     S
C633   O672    1.222   .     D
C633   O658    1.397   .     S
C633   C642    1.484   .     S
C634   C643    1.485   .     S
C634   O659    1.222   .     D
C634   O660    1.397   .     S
C635   O662    1.397   .     S
C635   C644    1.489   .     S
C635   O661    1.223   .     D
C636   O665    1.290   .     A
C636   O666    1.289   .     A
C637   O663    1.222   .     D
C637   O664    1.397   .     S
C638   C640    1.407   .     S
C638   O668    1.288   .     A
C638   O671    1.288   .     A
C639   O669    1.288   .     A
C639   O670    1.288   .     A
C639   C641    1.407   .     S
C641   C1072   1.189   .     S
C643   C674    1.402   .     S
C644   C690    1.402   .     S
Cu645  O668    1.931   .     S
Cu645  Cu646   2.682   .     S
Cu645  N655    2.015   .     S
Cu645  O657    1.963   .     S
Cu645  O666    1.963   .     S
Cu645  O670    1.932   .     S
Cu646  O667    1.963   .     S
Cu646  O671    1.932   .     S
Cu646  N656    2.015   .     S
Cu646  O665    1.963   .     S
Cu646  O669    1.931   .     S
H651   O658    1.014   .     S
H652   O660    1.014   .     S
H653   O662    1.014   .     S
H654   O664    1.014   .     S
C673   C676    1.451   .     S
C673   O705    1.290   .     A
C673   O715    1.290   .     A
C674   C676    1.411   .     A
C674   C685    1.487   .     S
C675   C691    1.410   .     A
C675   C692    1.412   .     A
C675   C684    1.450   .     S
C676   C690    1.411   .     A
C677   N704    1.367   .     A
C677   H695    1.082   .     S
C678   H696    1.082   .     S
C678   N703    1.367   .     A
C678   C823    1.418   .     S
C679   N704    1.367   .     A
C679   H697    1.081   .     S
C680   H698    1.081   .     S
C680   N703    1.367   .     A
C680   C821    1.418   .     S
C681   O720    1.222   .     D
C681   O706    1.397   .     S
C681   C690    1.484   .     S
C682   C691    1.485   .     S
C682   O707    1.222   .     D
C682   O708    1.397   .     S
C683   O710    1.397   .     S
C683   C692    1.489   .     S
C683   O709    1.223   .     D
C684   O713    1.290   .     A
C684   O714    1.289   .     A
C685   O711    1.222   .     D
C685   O712    1.397   .     S
C686   C688    1.407   .     S
C686   O716    1.288   .     A
C686   O719    1.288   .     A
C687   O717    1.288   .     A
C687   O718    1.288   .     A
C687   C689    1.407   .     S
C689   C1120   1.189   .     S
C691   C578    1.402   1_655 S
C692   C594    1.402   1_655 S
Cu693  O716    1.931   .     S
Cu693  Cu694   2.682   .     S
Cu693  N703    2.015   .     S
Cu693  O705    1.963   .     S
Cu693  O714    1.963   .     S
Cu693  O718    1.932   .     S
Cu694  O715    1.963   .     S
Cu694  O719    1.932   .     S
Cu694  N704    2.015   .     S
Cu694  O713    1.963   .     S
Cu694  O717    1.931   .     S
H699   O706    1.014   .     S
H700   O708    1.014   .     S
H701   O710    1.014   .     S
H702   O712    1.014   .     S
C721   C724    1.451   .     S
C721   O753    1.290   .     A
C721   O763    1.290   .     A
C722   C724    1.411   .     A
C722   C733    1.487   .     S
C722   C835    1.402   1_455 S
C723   C739    1.410   .     A
C723   C740    1.412   .     A
C723   C732    1.450   .     S
C724   C738    1.411   .     A
C725   N752    1.367   .     A
C725   H743    1.082   .     S
C726   H744    1.082   .     S
C726   N751    1.367   .     A
C726   C439    1.418   1_565 S
C727   N752    1.367   .     A
C727   H745    1.081   .     S
C728   H746    1.081   .     S
C728   N751    1.367   .     A
C728   C437    1.418   1_565 S
C729   O768    1.222   .     D
C729   O754    1.397   .     S
C729   C738    1.484   .     S
C730   C739    1.485   .     S
C730   O755    1.222   .     D
C730   O756    1.397   .     S
C731   O758    1.397   .     S
C731   C740    1.489   .     S
C731   O757    1.223   .     D
C732   O761    1.290   .     A
C732   O762    1.289   .     A
C733   O759    1.222   .     D
C733   O760    1.397   .     S
C734   C736    1.407   .     S
C734   O764    1.288   .     A
C734   O767    1.288   .     A
C735   O765    1.288   .     A
C735   O766    1.288   .     A
C735   C737    1.407   .     S
C737   C1168   1.189   .     S
C738   C836    1.402   1_455 S
C739   C770    1.402   .     S
C740   C786    1.402   .     S
Cu741  O764    1.931   .     S
Cu741  Cu742   2.682   .     S
Cu741  N751    2.015   .     S
Cu741  O753    1.963   .     S
Cu741  O762    1.963   .     S
Cu741  O766    1.932   .     S
Cu742  O763    1.963   .     S
Cu742  O767    1.932   .     S
Cu742  N752    2.015   .     S
Cu742  O761    1.963   .     S
Cu742  O765    1.931   .     S
H747   O754    1.014   .     S
H748   O756    1.014   .     S
H749   O758    1.014   .     S
H750   O760    1.014   .     S
C769   C772    1.451   .     S
C769   O801    1.290   .     A
C769   O811    1.290   .     A
C770   C772    1.411   .     A
C770   C781    1.487   .     S
C771   C787    1.410   .     A
C771   C788    1.412   .     A
C771   C780    1.450   .     S
C772   C786    1.411   .     A
C773   N800    1.367   .     A
C773   H791    1.082   .     S
C774   H792    1.082   .     S
C774   N799    1.367   .     A
C774   C487    1.418   1_565 S
C775   N800    1.367   .     A
C775   H793    1.081   .     S
C776   H794    1.081   .     S
C776   N799    1.367   .     A
C776   C485    1.418   1_565 S
C777   O816    1.222   .     D
C777   O802    1.397   .     S
C777   C786    1.484   .     S
C778   C787    1.485   .     S
C778   O803    1.222   .     D
C778   O804    1.397   .     S
C779   O806    1.397   .     S
C779   C788    1.489   .     S
C779   O805    1.223   .     D
C780   O809    1.290   .     A
C780   O810    1.289   .     A
C781   O807    1.222   .     D
C781   O808    1.397   .     S
C782   C784    1.407   .     S
C782   O812    1.288   .     A
C782   O815    1.288   .     A
C783   O813    1.288   .     A
C783   O814    1.288   .     A
C783   C785    1.407   .     S
C785   C1216   1.189   .     S
C787   C818    1.402   .     S
C788   C834    1.402   .     S
Cu789  O812    1.931   .     S
Cu789  Cu790   2.682   .     S
Cu789  N799    2.015   .     S
Cu789  O801    1.963   .     S
Cu789  O810    1.963   .     S
Cu789  O814    1.932   .     S
Cu790  O811    1.963   .     S
Cu790  O815    1.932   .     S
Cu790  N800    2.015   .     S
Cu790  O809    1.963   .     S
Cu790  O813    1.931   .     S
H795   O802    1.014   .     S
H796   O804    1.014   .     S
H797   O806    1.014   .     S
H798   O808    1.014   .     S
C817   C820    1.451   .     S
C817   O849    1.290   .     A
C817   O859    1.290   .     A
C818   C820    1.411   .     A
C818   C829    1.487   .     S
C819   C835    1.410   .     A
C819   C836    1.412   .     A
C819   C828    1.450   .     S
C820   C834    1.411   .     A
C821   N848    1.367   .     A
C821   H839    1.082   .     S
C822   H840    1.082   .     S
C822   N847    1.367   .     A
C822   C535    1.418   1_565 S
C823   N848    1.367   .     A
C823   H841    1.081   .     S
C824   H842    1.081   .     S
C824   N847    1.367   .     A
C824   C533    1.418   1_565 S
C825   O864    1.222   .     D
C825   O850    1.397   .     S
C825   C834    1.484   .     S
C826   C835    1.485   .     S
C826   O851    1.222   .     D
C826   O852    1.397   .     S
C827   O854    1.397   .     S
C827   C836    1.489   .     S
C827   O853    1.223   .     D
C828   O857    1.290   .     A
C828   O858    1.289   .     A
C829   O855    1.222   .     D
C829   O856    1.397   .     S
C830   C832    1.407   .     S
C830   O860    1.288   .     A
C830   O863    1.288   .     A
C831   O861    1.288   .     A
C831   O862    1.288   .     A
C831   C833    1.407   .     S
C833   C1264   1.189   .     S
C835   C722    1.402   1_655 S
C836   C738    1.402   1_655 S
Cu837  O860    1.931   .     S
Cu837  Cu838   2.682   .     S
Cu837  N847    2.015   .     S
Cu837  O849    1.963   .     S
Cu837  O858    1.963   .     S
Cu837  O862    1.932   .     S
Cu838  O859    1.963   .     S
Cu838  O863    1.932   .     S
Cu838  N848    2.015   .     S
Cu838  O857    1.963   .     S
Cu838  O861    1.931   .     S
H843   O850    1.014   .     S
H844   O852    1.014   .     S
H845   O854    1.014   .     S
H846   O856    1.014   .     S
C865   C868    1.451   .     S
C865   O897    1.290   .     A
C865   O907    1.290   .     A
C866   C868    1.411   .     A
C866   C877    1.487   .     S
C866   C979    1.402   1_455 S
C867   C883    1.410   .     A
C867   C884    1.412   .     A
C867   C876    1.450   .     S
C868   C882    1.411   .     A
C869   N896    1.367   .     A
C869   H887    1.082   .     S
C869   C1160   1.418   1_545 S
C870   H888    1.082   .     S
C870   N895    1.367   .     A
C870   C1015   1.418   .     S
C871   N896    1.367   .     A
C871   H889    1.081   .     S
C871   C1158   1.418   1_545 S
C872   H890    1.081   .     S
C872   N895    1.367   .     A
C872   C1013   1.418   .     S
C873   O912    1.222   .     D
C873   O898    1.397   .     S
C873   C882    1.484   .     S
C874   C883    1.485   .     S
C874   O899    1.222   .     D
C874   O900    1.397   .     S
C875   O902    1.397   .     S
C875   C884    1.489   .     S
C875   O901    1.223   .     D
C876   O905    1.290   .     A
C876   O906    1.289   .     A
C877   O903    1.222   .     D
C877   O904    1.397   .     S
C878   C880    1.407   .     S
C878   O908    1.288   .     A
C878   O911    1.288   .     A
C879   O909    1.288   .     A
C879   O910    1.288   .     A
C879   C881    1.407   .     S
C881   C16     1.189   1_556 S
C882   C980    1.402   1_455 S
C883   C914    1.402   .     S
C884   C930    1.402   .     S
Cu885  O908    1.931   .     S
Cu885  Cu886   2.682   .     S
Cu885  N895    2.015   .     S
Cu885  O897    1.963   .     S
Cu885  O906    1.963   .     S
Cu885  O910    1.932   .     S
Cu886  O907    1.963   .     S
Cu886  O911    1.932   .     S
Cu886  N896    2.015   .     S
Cu886  O905    1.963   .     S
Cu886  O909    1.931   .     S
H891   O898    1.014   .     S
H892   O900    1.014   .     S
H893   O902    1.014   .     S
H894   O904    1.014   .     S
C913   C916    1.451   .     S
C913   O945    1.290   .     A
C913   O955    1.290   .     A
C914   C916    1.411   .     A
C914   C925    1.487   .     S
C915   C931    1.410   .     A
C915   C932    1.412   .     A
C915   C924    1.450   .     S
C916   C930    1.411   .     A
C917   N944    1.367   .     A
C917   H935    1.082   .     S
C917   C1208   1.418   1_545 S
C918   H936    1.082   .     S
C918   N943    1.367   .     A
C918   C1063   1.418   .     S
C919   N944    1.367   .     A
C919   H937    1.081   .     S
C919   C1206   1.418   1_545 S
C920   H938    1.081   .     S
C920   N943    1.367   .     A
C920   C1061   1.418   .     S
C921   O960    1.222   .     D
C921   O946    1.397   .     S
C921   C930    1.484   .     S
C922   C931    1.485   .     S
C922   O947    1.222   .     D
C922   O948    1.397   .     S
C923   O950    1.397   .     S
C923   C932    1.489   .     S
C923   O949    1.223   .     D
C924   O953    1.290   .     A
C924   O954    1.289   .     A
C925   O951    1.222   .     D
C925   O952    1.397   .     S
C926   C928    1.407   .     S
C926   O956    1.288   .     A
C926   O959    1.288   .     A
C927   O957    1.288   .     A
C927   O958    1.288   .     A
C927   C929    1.407   .     S
C929   C64     1.189   1_556 S
C931   C962    1.402   .     S
C932   C978    1.402   .     S
Cu933  O956    1.931   .     S
Cu933  Cu934   2.682   .     S
Cu933  N943    2.015   .     S
Cu933  O945    1.963   .     S
Cu933  O954    1.963   .     S
Cu933  O958    1.932   .     S
Cu934  O955    1.963   .     S
Cu934  O959    1.932   .     S
Cu934  N944    2.015   .     S
Cu934  O953    1.963   .     S
Cu934  O957    1.931   .     S
H939   O946    1.014   .     S
H940   O948    1.014   .     S
H941   O950    1.014   .     S
H942   O952    1.014   .     S
C961   C964    1.451   .     S
C961   O993    1.290   .     A
C961   O1003   1.290   .     A
C962   C964    1.411   .     A
C962   C973    1.487   .     S
C963   C979    1.410   .     A
C963   C980    1.412   .     A
C963   C972    1.450   .     S
C964   C978    1.411   .     A
C965   N992    1.367   .     A
C965   H983    1.082   .     S
C965   C1256   1.418   1_545 S
C966   H984    1.082   .     S
C966   N991    1.367   .     A
C966   C1111   1.418   .     S
C967   N992    1.367   .     A
C967   H985    1.081   .     S
C967   C1254   1.418   1_545 S
C968   H986    1.081   .     S
C968   N991    1.367   .     A
C968   C1109   1.418   .     S
C969   O1008   1.222   .     D
C969   O994    1.397   .     S
C969   C978    1.484   .     S
C970   C979    1.485   .     S
C970   O995    1.222   .     D
C970   O996    1.397   .     S
C971   O998    1.397   .     S
C971   C980    1.489   .     S
C971   O997    1.223   .     D
C972   O1001   1.290   .     A
C972   O1002   1.289   .     A
C973   O999    1.222   .     D
C973   O1000   1.397   .     S
C974   C976    1.407   .     S
C974   O1004   1.288   .     A
C974   O1007   1.288   .     A
C975   O1005   1.288   .     A
C975   O1006   1.288   .     A
C975   C977    1.407   .     S
C977   C112    1.189   1_556 S
C979   C866    1.402   1_655 S
C980   C882    1.402   1_655 S
Cu981  O1004   1.931   .     S
Cu981  Cu982   2.682   .     S
Cu981  N991    2.015   .     S
Cu981  O993    1.963   .     S
Cu981  O1002   1.963   .     S
Cu981  O1006   1.932   .     S
Cu982  O1003   1.963   .     S
Cu982  O1007   1.932   .     S
Cu982  N992    2.015   .     S
Cu982  O1001   1.963   .     S
Cu982  O1005   1.931   .     S
H987   O994    1.014   .     S
H988   O996    1.014   .     S
H989   O998    1.014   .     S
H990   O1000   1.014   .     S
C1009  C1012   1.451   .     S
C1009  O1041   1.290   .     A
C1009  O1051   1.290   .     A
C1010  C1012   1.411   .     A
C1010  C1021   1.487   .     S
C1010  C1123   1.402   1_455 S
C1011  C1027   1.410   .     A
C1011  C1028   1.412   .     A
C1011  C1020   1.450   .     S
C1012  C1026   1.411   .     A
C1013  N1040   1.367   .     A
C1013  H1031   1.082   .     S
C1014  H1032   1.082   .     S
C1014  N1039   1.367   .     A
C1014  C1159   1.418   .     S
C1015  N1040   1.367   .     A
C1015  H1033   1.081   .     S
C1016  H1034   1.081   .     S
C1016  N1039   1.367   .     A
C1016  C1157   1.418   .     S
C1017  O1056   1.222   .     D
C1017  O1042   1.397   .     S
C1017  C1026   1.484   .     S
C1018  C1027   1.485   .     S
C1018  O1043   1.222   .     D
C1018  O1044   1.397   .     S
C1019  O1046   1.397   .     S
C1019  C1028   1.489   .     S
C1019  O1045   1.223   .     D
C1020  O1049   1.290   .     A
C1020  O1050   1.289   .     A
C1021  O1047   1.222   .     D
C1021  O1048   1.397   .     S
C1022  C1024   1.407   .     S
C1022  O1052   1.288   .     A
C1022  O1055   1.288   .     A
C1023  O1053   1.288   .     A
C1023  O1054   1.288   .     A
C1023  C1025   1.407   .     S
C1025  C160    1.189   1_556 S
C1026  C1124   1.402   1_455 S
C1027  C1058   1.402   .     S
C1028  C1074   1.402   .     S
Cu1029 O1052   1.931   .     S
Cu1029 Cu1030  2.682   .     S
Cu1029 N1039   2.015   .     S
Cu1029 O1041   1.963   .     S
Cu1029 O1050   1.963   .     S
Cu1029 O1054   1.932   .     S
Cu1030 O1051   1.963   .     S
Cu1030 O1055   1.932   .     S
Cu1030 N1040   2.015   .     S
Cu1030 O1049   1.963   .     S
Cu1030 O1053   1.931   .     S
H1035  O1042   1.014   .     S
H1036  O1044   1.014   .     S
H1037  O1046   1.014   .     S
H1038  O1048   1.014   .     S
C1057  C1060   1.451   .     S
C1057  O1089   1.290   .     A
C1057  O1099   1.290   .     A
C1058  C1060   1.411   .     A
C1058  C1069   1.487   .     S
C1059  C1075   1.410   .     A
C1059  C1076   1.412   .     A
C1059  C1068   1.450   .     S
C1060  C1074   1.411   .     A
C1061  N1088   1.367   .     A
C1061  H1079   1.082   .     S
C1062  H1080   1.082   .     S
C1062  N1087   1.367   .     A
C1062  C1207   1.418   .     S
C1063  N1088   1.367   .     A
C1063  H1081   1.081   .     S
C1064  H1082   1.081   .     S
C1064  N1087   1.367   .     A
C1064  C1205   1.418   .     S
C1065  O1104   1.222   .     D
C1065  O1090   1.397   .     S
C1065  C1074   1.484   .     S
C1066  C1075   1.485   .     S
C1066  O1091   1.222   .     D
C1066  O1092   1.397   .     S
C1067  O1094   1.397   .     S
C1067  C1076   1.489   .     S
C1067  O1093   1.223   .     D
C1068  O1097   1.290   .     A
C1068  O1098   1.289   .     A
C1069  O1095   1.222   .     D
C1069  O1096   1.397   .     S
C1070  C1072   1.407   .     S
C1070  O1100   1.288   .     A
C1070  O1103   1.288   .     A
C1071  O1101   1.288   .     A
C1071  O1102   1.288   .     A
C1071  C1073   1.407   .     S
C1073  C208    1.189   1_556 S
C1075  C1106   1.402   .     S
C1076  C1122   1.402   .     S
Cu1077 O1100   1.931   .     S
Cu1077 Cu1078  2.682   .     S
Cu1077 N1087   2.015   .     S
Cu1077 O1089   1.963   .     S
Cu1077 O1098   1.963   .     S
Cu1077 O1102   1.932   .     S
Cu1078 O1099   1.963   .     S
Cu1078 O1103   1.932   .     S
Cu1078 N1088   2.015   .     S
Cu1078 O1097   1.963   .     S
Cu1078 O1101   1.931   .     S
H1083  O1090   1.014   .     S
H1084  O1092   1.014   .     S
H1085  O1094   1.014   .     S
H1086  O1096   1.014   .     S
C1105  C1108   1.451   .     S
C1105  O1137   1.290   .     A
C1105  O1147   1.290   .     A
C1106  C1108   1.411   .     A
C1106  C1117   1.487   .     S
C1107  C1123   1.410   .     A
C1107  C1124   1.412   .     A
C1107  C1116   1.450   .     S
C1108  C1122   1.411   .     A
C1109  N1136   1.367   .     A
C1109  H1127   1.082   .     S
C1110  H1128   1.082   .     S
C1110  N1135   1.367   .     A
C1110  C1255   1.418   .     S
C1111  N1136   1.367   .     A
C1111  H1129   1.081   .     S
C1112  H1130   1.081   .     S
C1112  N1135   1.367   .     A
C1112  C1253   1.418   .     S
C1113  O1152   1.222   .     D
C1113  O1138   1.397   .     S
C1113  C1122   1.484   .     S
C1114  C1123   1.485   .     S
C1114  O1139   1.222   .     D
C1114  O1140   1.397   .     S
C1115  O1142   1.397   .     S
C1115  C1124   1.489   .     S
C1115  O1141   1.223   .     D
C1116  O1145   1.290   .     A
C1116  O1146   1.289   .     A
C1117  O1143   1.222   .     D
C1117  O1144   1.397   .     S
C1118  C1120   1.407   .     S
C1118  O1148   1.288   .     A
C1118  O1151   1.288   .     A
C1119  O1149   1.288   .     A
C1119  O1150   1.288   .     A
C1119  C1121   1.407   .     S
C1121  C256    1.189   1_556 S
C1123  C1010   1.402   1_655 S
C1124  C1026   1.402   1_655 S
Cu1125 O1148   1.931   .     S
Cu1125 Cu1126  2.682   .     S
Cu1125 N1135   2.015   .     S
Cu1125 O1137   1.963   .     S
Cu1125 O1146   1.963   .     S
Cu1125 O1150   1.932   .     S
Cu1126 O1147   1.963   .     S
Cu1126 O1151   1.932   .     S
Cu1126 N1136   2.015   .     S
Cu1126 O1145   1.963   .     S
Cu1126 O1149   1.931   .     S
H1131  O1138   1.014   .     S
H1132  O1140   1.014   .     S
H1133  O1142   1.014   .     S
H1134  O1144   1.014   .     S
C1153  C1156   1.451   .     S
C1153  O1185   1.290   .     A
C1153  O1195   1.290   .     A
C1154  C1156   1.411   .     A
C1154  C1165   1.487   .     S
C1154  C1267   1.402   1_455 S
C1155  C1171   1.410   .     A
C1155  C1172   1.412   .     A
C1155  C1164   1.450   .     S
C1156  C1170   1.411   .     A
C1157  N1184   1.367   .     A
C1157  H1175   1.082   .     S
C1158  H1176   1.082   .     S
C1158  N1183   1.367   .     A
C1158  C871    1.418   1_565 S
C1159  N1184   1.367   .     A
C1159  H1177   1.081   .     S
C1160  H1178   1.081   .     S
C1160  N1183   1.367   .     A
C1160  C869    1.418   1_565 S
C1161  O1200   1.222   .     D
C1161  O1186   1.397   .     S
C1161  C1170   1.484   .     S
C1162  C1171   1.485   .     S
C1162  O1187   1.222   .     D
C1162  O1188   1.397   .     S
C1163  O1190   1.397   .     S
C1163  C1172   1.489   .     S
C1163  O1189   1.223   .     D
C1164  O1193   1.290   .     A
C1164  O1194   1.289   .     A
C1165  O1191   1.222   .     D
C1165  O1192   1.397   .     S
C1166  C1168   1.407   .     S
C1166  O1196   1.288   .     A
C1166  O1199   1.288   .     A
C1167  O1197   1.288   .     A
C1167  O1198   1.288   .     A
C1167  C1169   1.407   .     S
C1169  C304    1.189   1_556 S
C1170  C1268   1.402   1_455 S
C1171  C1202   1.402   .     S
C1172  C1218   1.402   .     S
Cu1173 O1196   1.931   .     S
Cu1173 Cu1174  2.682   .     S
Cu1173 N1183   2.015   .     S
Cu1173 O1185   1.963   .     S
Cu1173 O1194   1.963   .     S
Cu1173 O1198   1.932   .     S
Cu1174 O1195   1.963   .     S
Cu1174 O1199   1.932   .     S
Cu1174 N1184   2.015   .     S
Cu1174 O1193   1.963   .     S
Cu1174 O1197   1.931   .     S
H1179  O1186   1.014   .     S
H1180  O1188   1.014   .     S
H1181  O1190   1.014   .     S
H1182  O1192   1.014   .     S
C1201  C1204   1.451   .     S
C1201  O1233   1.290   .     A
C1201  O1243   1.290   .     A
C1202  C1204   1.411   .     A
C1202  C1213   1.487   .     S
C1203  C1219   1.410   .     A
C1203  C1220   1.412   .     A
C1203  C1212   1.450   .     S
C1204  C1218   1.411   .     A
C1205  N1232   1.367   .     A
C1205  H1223   1.082   .     S
C1206  H1224   1.082   .     S
C1206  N1231   1.367   .     A
C1206  C919    1.418   1_565 S
C1207  N1232   1.367   .     A
C1207  H1225   1.081   .     S
C1208  H1226   1.081   .     S
C1208  N1231   1.367   .     A
C1208  C917    1.418   1_565 S
C1209  O1248   1.222   .     D
C1209  O1234   1.397   .     S
C1209  C1218   1.484   .     S
C1210  C1219   1.485   .     S
C1210  O1235   1.222   .     D
C1210  O1236   1.397   .     S
C1211  O1238   1.397   .     S
C1211  C1220   1.489   .     S
C1211  O1237   1.223   .     D
C1212  O1241   1.290   .     A
C1212  O1242   1.289   .     A
C1213  O1239   1.222   .     D
C1213  O1240   1.397   .     S
C1214  C1216   1.407   .     S
C1214  O1244   1.288   .     A
C1214  O1247   1.288   .     A
C1215  O1245   1.288   .     A
C1215  O1246   1.288   .     A
C1215  C1217   1.407   .     S
C1217  C352    1.189   1_556 S
C1219  C1250   1.402   .     S
C1220  C1266   1.402   .     S
Cu1221 O1244   1.931   .     S
Cu1221 Cu1222  2.682   .     S
Cu1221 N1231   2.015   .     S
Cu1221 O1233   1.963   .     S
Cu1221 O1242   1.963   .     S
Cu1221 O1246   1.932   .     S
Cu1222 O1243   1.963   .     S
Cu1222 O1247   1.932   .     S
Cu1222 N1232   2.015   .     S
Cu1222 O1241   1.963   .     S
Cu1222 O1245   1.931   .     S
H1227  O1234   1.014   .     S
H1228  O1236   1.014   .     S
H1229  O1238   1.014   .     S
H1230  O1240   1.014   .     S
C1249  C1252   1.451   .     S
C1249  O1281   1.290   .     A
C1249  O1291   1.290   .     A
C1250  C1252   1.411   .     A
C1250  C1261   1.487   .     S
C1251  C1267   1.410   .     A
C1251  C1268   1.412   .     A
C1251  C1260   1.450   .     S
C1252  C1266   1.411   .     A
C1253  N1280   1.367   .     A
C1253  H1271   1.082   .     S
C1254  H1272   1.082   .     S
C1254  N1279   1.367   .     A
C1254  C967    1.418   1_565 S
C1255  N1280   1.367   .     A
C1255  H1273   1.081   .     S
C1256  H1274   1.081   .     S
C1256  N1279   1.367   .     A
C1256  C965    1.418   1_565 S
C1257  O1296   1.222   .     D
C1257  O1282   1.397   .     S
C1257  C1266   1.484   .     S
C1258  C1267   1.485   .     S
C1258  O1283   1.222   .     D
C1258  O1284   1.397   .     S
C1259  O1286   1.397   .     S
C1259  C1268   1.489   .     S
C1259  O1285   1.223   .     D
C1260  O1289   1.290   .     A
C1260  O1290   1.289   .     A
C1261  O1287   1.222   .     D
C1261  O1288   1.397   .     S
C1262  C1264   1.407   .     S
C1262  O1292   1.288   .     A
C1262  O1295   1.288   .     A
C1263  O1293   1.288   .     A
C1263  O1294   1.288   .     A
C1263  C1265   1.407   .     S
C1265  C400    1.189   1_556 S
C1267  C1154   1.402   1_655 S
C1268  C1170   1.402   1_655 S
Cu1269 O1292   1.931   .     S
Cu1269 Cu1270  2.682   .     S
Cu1269 N1279   2.015   .     S
Cu1269 O1281   1.963   .     S
Cu1269 O1290   1.963   .     S
Cu1269 O1294   1.932   .     S
Cu1270 O1291   1.963   .     S
Cu1270 O1295   1.932   .     S
Cu1270 N1280   2.015   .     S
Cu1270 O1289   1.963   .     S
Cu1270 O1293   1.931   .     S
H1275  O1282   1.014   .     S
H1276  O1284   1.014   .     S
H1277  O1286   1.014   .     S
H1278  O1288   1.014   .     S
