data_str_m2_o1_o2_pcu_sym.64
_audit_creation_date              2020-01-03
_audit_creation_method            'Materials Studio'
_symmetry_space_group_name_H-M    'P1'
_symmetry_Int_Tables_number       1
_symmetry_cell_setting            triclinic
loop_
_symmetry_equiv_pos_as_xyz
  x,y,z
_cell_length_a                    32.5793
_cell_length_b                    29.1612
_cell_length_c                    29.9288
_cell_angle_alpha                 88.0368
_cell_angle_beta                  94.2451
_cell_angle_gamma                 89.3133
loop_
_atom_site_label
_atom_site_type_symbol
_atom_site_fract_x
_atom_site_fract_y
_atom_site_fract_z
_atom_site_U_iso_or_equiv
_atom_site_adp_type
_atom_site_occupancy
C1     C     0.08758   0.16688   0.25025   0.00000  Uiso   1.00
C2     C     0.31020   0.20377   0.22957   0.00000  Uiso   1.00
C3     C     0.31373   0.12589   0.26065   0.00000  Uiso   1.00
C4     C     0.01948   0.20496   0.23228   0.00000  Uiso   1.00
C5     C     0.19009   0.14870   0.04706   0.00000  Uiso   1.00
C6     C     0.14950   0.12343   0.45261   0.00000  Uiso   1.00
C7     C     0.14865   0.20653   0.45103   0.00000  Uiso   1.00
C8     C     0.12071   0.18009   0.04733   0.00000  Uiso   1.00
C9     C     0.19480   0.15068   0.09354   0.00000  Uiso   1.00
C10    C     0.15129   0.12438   0.40629   0.00000  Uiso   1.00
C11    C     0.15121   0.20717   0.40482   0.00000  Uiso   1.00
C12    C     0.24568   0.16628   0.24848   0.00000  Uiso   1.00
C13    C     0.12526   0.18136   0.09387   0.00000  Uiso   1.00
C14    C     0.16264   0.16792   0.11678   0.00000  Uiso   1.00
C15    C     0.15574   0.16589   0.38255   0.00000  Uiso   1.00
C16    C     0.15322   0.16396   0.02391   0.00000  Uiso   1.00
C17    C     0.14963   0.16459   0.47516   0.00000  Uiso   1.00
C18    C     0.29028   0.16513   0.24598   0.00000  Uiso   1.00
C19    C     0.04283   0.16698   0.24997   0.00000  Uiso   1.00
C20    C     0.11771   0.05159   0.18197   0.00000  Uiso   1.00
C21    C     0.07632   0.05872   0.19024   0.00000  Uiso   1.00
C22    C     0.04808   0.07638   0.15638   0.00000  Uiso   1.00
C23    C     0.16620   0.16722   0.16522   0.00000  Uiso   1.00
C24    C     0.06048   0.08490   0.11323   0.00000  Uiso   1.00
C25    C     0.10108   0.07565   0.10395   0.00000  Uiso   1.00
C26    C     0.12965   0.05935   0.13810   0.00000  Uiso   1.00
C27    C     0.23075   0.28713   0.30031   0.00000  Uiso   1.00
C28    C     0.23452   0.26403   0.34234   0.00000  Uiso   1.00
C29    C     0.27311   0.24977   0.36177   0.00000  Uiso   1.00
C30    C     0.30861   0.26033   0.34035   0.00000  Uiso   1.00
C31    C     0.30551   0.28555   0.29974   0.00000  Uiso   1.00
C32    C     0.26683   0.29876   0.27975   0.00000  Uiso   1.00
C33    C     0.19611   0.03781   0.33104   0.00000  Uiso   1.00
C34    C     0.16351   0.16626   0.33468   0.00000  Uiso   1.00
C35    C     0.23041   0.06479   0.34215   0.00000  Uiso   1.00
C36    C     0.24518   0.06938   0.38683   0.00000  Uiso   1.00
C37    C     0.22666   0.04567   0.42112   0.00000  Uiso   1.00
C38    C     0.19265   0.01828   0.41081   0.00000  Uiso   1.00
C39    C     0.17703   0.01502   0.36623   0.00000  Uiso   1.00
C40    C     0.13608   0.29139   0.17084   0.00000  Uiso   1.00
C41    C     0.16734   0.28979   0.14074   0.00000  Uiso   1.00
C42    C     0.15743   0.28705   0.09466   0.00000  Uiso   1.00
C43    C     0.11625   0.28663   0.07799   0.00000  Uiso   1.00
C44    C     0.08500   0.28734   0.10749   0.00000  Uiso   1.00
C45    C     0.14545   0.02638   0.21637   0.00000  Uiso   1.00
C46    C     0.09484   0.28989   0.15361   0.00000  Uiso   1.00
C47    C     0.19105   0.30728   0.28059   0.00000  Uiso   1.00
C48    C     0.18617   0.02221   0.28457   0.00000  Uiso   1.00
C49    C     0.14669   0.31047   0.21544   0.00000  Uiso   1.00
C50    C     0.02286   0.12771   0.26491   0.00000  Uiso   1.00
Cu51   Cu    0.16667   0.21355   0.25000   0.00000  Uiso   1.00
Cu52   Cu    0.16667   0.11978   0.25000   0.00000  Uiso   1.00
F53    F     0.04422   0.09129   0.28479   0.00000  Uiso   1.00
F54    F     0.28852   0.23967   0.20915   0.00000  Uiso   1.00
F55    F     0.29628   0.08511   0.26967   0.00000  Uiso   1.00
F56    F     0.03766   0.24328   0.21743   0.00000  Uiso   1.00
H57    H     0.21528   0.13598   0.02904   0.00000  Uiso   1.00
H58    H     0.01634   0.08226   0.16331   0.00000  Uiso   1.00
H59    H     0.03849   0.09791   0.08682   0.00000  Uiso   1.00
H60    H     0.11045   0.08109   0.07026   0.00000  Uiso   1.00
H61    H     0.16098   0.05221   0.13034   0.00000  Uiso   1.00
H62    H     0.20810   0.25862   0.36099   0.00000  Uiso   1.00
H63    H     0.27553   0.23154   0.39399   0.00000  Uiso   1.00
H64    H     0.00520   0.24975   0.35562   0.00000  Uiso   1.00
H65    H     0.33306   0.29476   0.28362   0.00000  Uiso   1.00
H66    H     0.26497   0.31876   0.24846   0.00000  Uiso   1.00
H67    H     0.24598   0.08191   0.31662   0.00000  Uiso   1.00
H68    H     0.14851   0.09079   0.47090   0.00000  Uiso   1.00
H69    H     0.27156   0.09063   0.39477   0.00000  Uiso   1.00
H70    H     0.23849   0.04870   0.45563   0.00000  Uiso   1.00
H71    H     0.17823   0.33314   0.43730   0.00000  Uiso   1.00
H72    H     0.15114   0.32617   0.35886   0.00000  Uiso   1.00
H73    H     0.19929   0.29315   0.15286   0.00000  Uiso   1.00
H74    H     0.18163   0.28644   0.07179   0.00000  Uiso   1.00
H75    H     0.10858   0.28546   0.04224   0.00000  Uiso   1.00
H76    H     0.05310   0.28775   0.09450   0.00000  Uiso   1.00
H77    H     0.07044   0.29627   0.17502   0.00000  Uiso   1.00
H78    H     0.14730   0.23862   0.46813   0.00000  Uiso   1.00
H79    H     0.09195   0.19135   0.02964   0.00000  Uiso   1.00
H80    H     0.22333   0.13885   0.11136   0.00000  Uiso   1.00
H81    H     0.14927   0.09289   0.38890   0.00000  Uiso   1.00
H82    H     0.14969   0.23994   0.38683   0.00000  Uiso   1.00
H83    H     0.09960   0.19233   0.11211   0.00000  Uiso   1.00
H84    H     0.06574   0.04892   0.22249   0.00000  Uiso   1.00
N85    N     0.16667   0.28402   0.25000   0.00000  Uiso   1.00
N86    N     0.16667   0.04931   0.25000   0.00000  Uiso   1.00
O87    O     0.10655   0.20625   0.24999   0.00000  Uiso   1.00
O88    O     0.22679   0.12709   0.25000   0.00000  Uiso   1.00
O89    O     0.22679   0.20625   0.25000   0.00000  Uiso   1.00
O90    O     0.10655   0.12709   0.24999   0.00000  Uiso   1.00
O91    O     0.16666   0.20626   0.18573   0.00000  Uiso   1.00
O92    O     0.16667   0.12707   0.31427   0.00000  Uiso   1.00
O93    O     0.16667   0.20626   0.31427   0.00000  Uiso   1.00
O94    O     0.16666   0.12707   0.18573   0.00000  Uiso   1.00
C95    C     0.42091   0.16688   0.25025   0.00000  Uiso   1.00
C96    C     0.64353   0.20377   0.22957   0.00000  Uiso   1.00
C97    C     0.64706   0.12589   0.26065   0.00000  Uiso   1.00
C98    C     0.35281   0.20496   0.23228   0.00000  Uiso   1.00
C99    C     0.52342   0.14870   0.04706   0.00000  Uiso   1.00
C100   C     0.48284   0.12343   0.45261   0.00000  Uiso   1.00
C101   C     0.48198   0.20653   0.45103   0.00000  Uiso   1.00
C102   C     0.45404   0.18009   0.04733   0.00000  Uiso   1.00
C103   C     0.52813   0.15068   0.09354   0.00000  Uiso   1.00
C104   C     0.48462   0.12438   0.40629   0.00000  Uiso   1.00
C105   C     0.48454   0.20717   0.40482   0.00000  Uiso   1.00
C106   C     0.57901   0.16628   0.24848   0.00000  Uiso   1.00
C107   C     0.45859   0.18136   0.09387   0.00000  Uiso   1.00
C108   C     0.49597   0.16792   0.11678   0.00000  Uiso   1.00
C109   C     0.48907   0.16589   0.38255   0.00000  Uiso   1.00
C110   C     0.48655   0.16396   0.02391   0.00000  Uiso   1.00
C111   C     0.48296   0.16459   0.47516   0.00000  Uiso   1.00
C112   C     0.62361   0.16513   0.24598   0.00000  Uiso   1.00
C113   C     0.37617   0.16698   0.24997   0.00000  Uiso   1.00
C114   C     0.45104   0.05159   0.18197   0.00000  Uiso   1.00
C115   C     0.40965   0.05872   0.19024   0.00000  Uiso   1.00
C116   C     0.38141   0.07638   0.15638   0.00000  Uiso   1.00
C117   C     0.49953   0.16722   0.16522   0.00000  Uiso   1.00
C118   C     0.39381   0.08490   0.11323   0.00000  Uiso   1.00
C119   C     0.43441   0.07565   0.10395   0.00000  Uiso   1.00
C120   C     0.46299   0.05935   0.13810   0.00000  Uiso   1.00
C121   C     0.56409   0.28713   0.30031   0.00000  Uiso   1.00
C122   C     0.56786   0.26403   0.34234   0.00000  Uiso   1.00
C123   C     0.60644   0.24977   0.36177   0.00000  Uiso   1.00
C124   C     0.64195   0.26033   0.34035   0.00000  Uiso   1.00
C125   C     0.63884   0.28555   0.29974   0.00000  Uiso   1.00
C126   C     0.60016   0.29876   0.27975   0.00000  Uiso   1.00
C127   C     0.52944   0.03781   0.33104   0.00000  Uiso   1.00
C128   C     0.49684   0.16626   0.33468   0.00000  Uiso   1.00
C129   C     0.56375   0.06479   0.34215   0.00000  Uiso   1.00
C130   C     0.57851   0.06938   0.38683   0.00000  Uiso   1.00
C131   C     0.55999   0.04567   0.42112   0.00000  Uiso   1.00
C132   C     0.52599   0.01828   0.41081   0.00000  Uiso   1.00
C133   C     0.51036   0.01502   0.36623   0.00000  Uiso   1.00
C134   C     0.46942   0.29139   0.17084   0.00000  Uiso   1.00
C135   C     0.50067   0.28979   0.14074   0.00000  Uiso   1.00
C136   C     0.49076   0.28705   0.09466   0.00000  Uiso   1.00
C137   C     0.44959   0.28663   0.07799   0.00000  Uiso   1.00
C138   C     0.41833   0.28734   0.10749   0.00000  Uiso   1.00
C139   C     0.47878   0.02638   0.21637   0.00000  Uiso   1.00
C140   C     0.42817   0.28989   0.15361   0.00000  Uiso   1.00
C141   C     0.52438   0.30728   0.28059   0.00000  Uiso   1.00
C142   C     0.51951   0.02221   0.28457   0.00000  Uiso   1.00
C143   C     0.48002   0.31047   0.21544   0.00000  Uiso   1.00
C144   C     0.35619   0.12771   0.26491   0.00000  Uiso   1.00
Cu145  Cu    0.50000   0.21355   0.25000   0.00000  Uiso   1.00
Cu146  Cu    0.50000   0.11978   0.25000   0.00000  Uiso   1.00
F147   F     0.37756   0.09129   0.28479   0.00000  Uiso   1.00
F148   F     0.62185   0.23967   0.20915   0.00000  Uiso   1.00
F149   F     0.62962   0.08511   0.26967   0.00000  Uiso   1.00
F150   F     0.37099   0.24328   0.21743   0.00000  Uiso   1.00
H151   H     0.54862   0.13598   0.02904   0.00000  Uiso   1.00
H152   H     0.34967   0.08226   0.16331   0.00000  Uiso   1.00
H153   H     0.37182   0.09791   0.08682   0.00000  Uiso   1.00
H154   H     0.44379   0.08109   0.07026   0.00000  Uiso   1.00
H155   H     0.49431   0.05221   0.13034   0.00000  Uiso   1.00
H156   H     0.54143   0.25862   0.36099   0.00000  Uiso   1.00
H157   H     0.60886   0.23154   0.39399   0.00000  Uiso   1.00
H158   H     0.33854   0.24975   0.35562   0.00000  Uiso   1.00
H159   H     0.66639   0.29476   0.28362   0.00000  Uiso   1.00
H160   H     0.59831   0.31876   0.24846   0.00000  Uiso   1.00
H161   H     0.57932   0.08191   0.31662   0.00000  Uiso   1.00
H162   H     0.48184   0.09079   0.47090   0.00000  Uiso   1.00
H163   H     0.60490   0.09063   0.39477   0.00000  Uiso   1.00
H164   H     0.57182   0.04870   0.45563   0.00000  Uiso   1.00
H165   H     0.51156   0.33314   0.43730   0.00000  Uiso   1.00
H166   H     0.48447   0.32617   0.35886   0.00000  Uiso   1.00
H167   H     0.53262   0.29315   0.15286   0.00000  Uiso   1.00
H168   H     0.51497   0.28644   0.07179   0.00000  Uiso   1.00
H169   H     0.44192   0.28546   0.04224   0.00000  Uiso   1.00
H170   H     0.38643   0.28775   0.09450   0.00000  Uiso   1.00
H171   H     0.40377   0.29627   0.17502   0.00000  Uiso   1.00
H172   H     0.48063   0.23862   0.46813   0.00000  Uiso   1.00
H173   H     0.42528   0.19135   0.02964   0.00000  Uiso   1.00
H174   H     0.55666   0.13885   0.11136   0.00000  Uiso   1.00
H175   H     0.48261   0.09289   0.38890   0.00000  Uiso   1.00
H176   H     0.48302   0.23994   0.38683   0.00000  Uiso   1.00
H177   H     0.43293   0.19233   0.11211   0.00000  Uiso   1.00
H178   H     0.39907   0.04892   0.22249   0.00000  Uiso   1.00
N179   N     0.50000   0.28402   0.25000   0.00000  Uiso   1.00
N180   N     0.50000   0.04931   0.25000   0.00000  Uiso   1.00
O181   O     0.43988   0.20625   0.24999   0.00000  Uiso   1.00
O182   O     0.56012   0.12709   0.25000   0.00000  Uiso   1.00
O183   O     0.56012   0.20625   0.25000   0.00000  Uiso   1.00
O184   O     0.43988   0.12709   0.24999   0.00000  Uiso   1.00
O185   O     0.50000   0.20626   0.18573   0.00000  Uiso   1.00
O186   O     0.50000   0.12707   0.31427   0.00000  Uiso   1.00
O187   O     0.50000   0.20626   0.31427   0.00000  Uiso   1.00
O188   O     0.50000   0.12707   0.18573   0.00000  Uiso   1.00
C189   C     0.75425   0.16688   0.25025   0.00000  Uiso   1.00
C190   C     0.97686   0.20377   0.22957   0.00000  Uiso   1.00
C191   C     0.98039   0.12589   0.26065   0.00000  Uiso   1.00
C192   C     0.68615   0.20496   0.23228   0.00000  Uiso   1.00
C193   C     0.85675   0.14870   0.04706   0.00000  Uiso   1.00
C194   C     0.81617   0.12343   0.45261   0.00000  Uiso   1.00
C195   C     0.81531   0.20653   0.45103   0.00000  Uiso   1.00
C196   C     0.78737   0.18009   0.04733   0.00000  Uiso   1.00
C197   C     0.86146   0.15068   0.09354   0.00000  Uiso   1.00
C198   C     0.81795   0.12438   0.40629   0.00000  Uiso   1.00
C199   C     0.81788   0.20717   0.40482   0.00000  Uiso   1.00
C200   C     0.91235   0.16628   0.24848   0.00000  Uiso   1.00
C201   C     0.79193   0.18136   0.09387   0.00000  Uiso   1.00
C202   C     0.82931   0.16792   0.11678   0.00000  Uiso   1.00
C203   C     0.82241   0.16589   0.38255   0.00000  Uiso   1.00
C204   C     0.81988   0.16396   0.02391   0.00000  Uiso   1.00
C205   C     0.81629   0.16459   0.47516   0.00000  Uiso   1.00
C206   C     0.95695   0.16513   0.24598   0.00000  Uiso   1.00
C207   C     0.70950   0.16698   0.24997   0.00000  Uiso   1.00
C208   C     0.78437   0.05159   0.18197   0.00000  Uiso   1.00
C209   C     0.74299   0.05872   0.19024   0.00000  Uiso   1.00
C210   C     0.71475   0.07638   0.15638   0.00000  Uiso   1.00
C211   C     0.83286   0.16722   0.16522   0.00000  Uiso   1.00
C212   C     0.72715   0.08490   0.11323   0.00000  Uiso   1.00
C213   C     0.76774   0.07565   0.10395   0.00000  Uiso   1.00
C214   C     0.79632   0.05935   0.13810   0.00000  Uiso   1.00
C215   C     0.89742   0.28713   0.30031   0.00000  Uiso   1.00
C216   C     0.90119   0.26403   0.34234   0.00000  Uiso   1.00
C217   C     0.93978   0.24977   0.36177   0.00000  Uiso   1.00
C218   C     0.97528   0.26033   0.34035   0.00000  Uiso   1.00
C219   C     0.97218   0.28555   0.29974   0.00000  Uiso   1.00
C220   C     0.93350   0.29876   0.27975   0.00000  Uiso   1.00
C221   C     0.86278   0.03781   0.33104   0.00000  Uiso   1.00
C222   C     0.83017   0.16626   0.33468   0.00000  Uiso   1.00
C223   C     0.89708   0.06479   0.34215   0.00000  Uiso   1.00
C224   C     0.91185   0.06938   0.38683   0.00000  Uiso   1.00
C225   C     0.89332   0.04567   0.42112   0.00000  Uiso   1.00
C226   C     0.85932   0.01828   0.41081   0.00000  Uiso   1.00
C227   C     0.84369   0.01502   0.36623   0.00000  Uiso   1.00
C228   C     0.80275   0.29139   0.17084   0.00000  Uiso   1.00
C229   C     0.83400   0.28979   0.14074   0.00000  Uiso   1.00
C230   C     0.82409   0.28705   0.09466   0.00000  Uiso   1.00
C231   C     0.78292   0.28663   0.07799   0.00000  Uiso   1.00
C232   C     0.75166   0.28734   0.10749   0.00000  Uiso   1.00
C233   C     0.81212   0.02638   0.21637   0.00000  Uiso   1.00
C234   C     0.76150   0.28989   0.15361   0.00000  Uiso   1.00
C235   C     0.85772   0.30728   0.28059   0.00000  Uiso   1.00
C236   C     0.85284   0.02221   0.28457   0.00000  Uiso   1.00
C237   C     0.81336   0.31047   0.21544   0.00000  Uiso   1.00
C238   C     0.68953   0.12771   0.26491   0.00000  Uiso   1.00
Cu239  Cu    0.83333   0.21355   0.25000   0.00000  Uiso   1.00
Cu240  Cu    0.83333   0.11978   0.25000   0.00000  Uiso   1.00
F241   F     0.71089   0.09129   0.28479   0.00000  Uiso   1.00
F242   F     0.95519   0.23967   0.20915   0.00000  Uiso   1.00
F243   F     0.96295   0.08511   0.26967   0.00000  Uiso   1.00
F244   F     0.70433   0.24328   0.21743   0.00000  Uiso   1.00
H245   H     0.88195   0.13598   0.02904   0.00000  Uiso   1.00
H246   H     0.68301   0.08226   0.16331   0.00000  Uiso   1.00
H247   H     0.70516   0.09791   0.08682   0.00000  Uiso   1.00
H248   H     0.77712   0.08109   0.07026   0.00000  Uiso   1.00
H249   H     0.82764   0.05221   0.13034   0.00000  Uiso   1.00
H250   H     0.87477   0.25862   0.36099   0.00000  Uiso   1.00
H251   H     0.94220   0.23154   0.39399   0.00000  Uiso   1.00
H252   H     0.67187   0.24975   0.35562   0.00000  Uiso   1.00
H253   H     0.99973   0.29476   0.28362   0.00000  Uiso   1.00
H254   H     0.93164   0.31876   0.24846   0.00000  Uiso   1.00
H255   H     0.91265   0.08191   0.31662   0.00000  Uiso   1.00
H256   H     0.81517   0.09079   0.47090   0.00000  Uiso   1.00
H257   H     0.93823   0.09063   0.39477   0.00000  Uiso   1.00
H258   H     0.90515   0.04870   0.45563   0.00000  Uiso   1.00
H259   H     0.84490   0.33314   0.43730   0.00000  Uiso   1.00
H260   H     0.81780   0.32617   0.35886   0.00000  Uiso   1.00
H261   H     0.86596   0.29315   0.15286   0.00000  Uiso   1.00
H262   H     0.84830   0.28644   0.07179   0.00000  Uiso   1.00
H263   H     0.77525   0.28546   0.04224   0.00000  Uiso   1.00
H264   H     0.71977   0.28775   0.09450   0.00000  Uiso   1.00
H265   H     0.73710   0.29627   0.17502   0.00000  Uiso   1.00
H266   H     0.81396   0.23862   0.46813   0.00000  Uiso   1.00
H267   H     0.75861   0.19135   0.02964   0.00000  Uiso   1.00
H268   H     0.89000   0.13885   0.11136   0.00000  Uiso   1.00
H269   H     0.81594   0.09289   0.38890   0.00000  Uiso   1.00
H270   H     0.81635   0.23994   0.38683   0.00000  Uiso   1.00
H271   H     0.76626   0.19233   0.11211   0.00000  Uiso   1.00
H272   H     0.73240   0.04892   0.22249   0.00000  Uiso   1.00
N273   N     0.83333   0.28402   0.25000   0.00000  Uiso   1.00
N274   N     0.83333   0.04931   0.25000   0.00000  Uiso   1.00
O275   O     0.77321   0.20625   0.24999   0.00000  Uiso   1.00
O276   O     0.89345   0.12709   0.25000   0.00000  Uiso   1.00
O277   O     0.89345   0.20625   0.25000   0.00000  Uiso   1.00
O278   O     0.77321   0.12709   0.24999   0.00000  Uiso   1.00
O279   O     0.83333   0.20626   0.18573   0.00000  Uiso   1.00
O280   O     0.83334   0.12707   0.31427   0.00000  Uiso   1.00
O281   O     0.83334   0.20626   0.31427   0.00000  Uiso   1.00
O282   O     0.83333   0.12707   0.18573   0.00000  Uiso   1.00
C283   C     0.08758   0.50021   0.25025   0.00000  Uiso   1.00
C284   C     0.31020   0.53711   0.22957   0.00000  Uiso   1.00
C285   C     0.31373   0.45923   0.26065   0.00000  Uiso   1.00
C286   C     0.01948   0.53829   0.23228   0.00000  Uiso   1.00
C287   C     0.19009   0.48203   0.04706   0.00000  Uiso   1.00
C288   C     0.14950   0.45676   0.45261   0.00000  Uiso   1.00
C289   C     0.14865   0.53986   0.45103   0.00000  Uiso   1.00
C290   C     0.12071   0.51342   0.04733   0.00000  Uiso   1.00
C291   C     0.19480   0.48401   0.09354   0.00000  Uiso   1.00
C292   C     0.15129   0.45771   0.40629   0.00000  Uiso   1.00
C293   C     0.15121   0.54050   0.40482   0.00000  Uiso   1.00
C294   C     0.24568   0.49961   0.24848   0.00000  Uiso   1.00
C295   C     0.12526   0.51470   0.09387   0.00000  Uiso   1.00
C296   C     0.16264   0.50126   0.11678   0.00000  Uiso   1.00
C297   C     0.15574   0.49922   0.38255   0.00000  Uiso   1.00
C298   C     0.15322   0.49729   0.02391   0.00000  Uiso   1.00
C299   C     0.14963   0.49792   0.47516   0.00000  Uiso   1.00
C300   C     0.29028   0.49846   0.24598   0.00000  Uiso   1.00
C301   C     0.04283   0.50031   0.24997   0.00000  Uiso   1.00
C302   C     0.11771   0.38493   0.18197   0.00000  Uiso   1.00
C303   C     0.07632   0.39205   0.19024   0.00000  Uiso   1.00
C304   C     0.04808   0.40971   0.15638   0.00000  Uiso   1.00
C305   C     0.16620   0.50056   0.16522   0.00000  Uiso   1.00
C306   C     0.06048   0.41824   0.11323   0.00000  Uiso   1.00
C307   C     0.10108   0.40898   0.10395   0.00000  Uiso   1.00
C308   C     0.12965   0.39268   0.13810   0.00000  Uiso   1.00
C309   C     0.23075   0.62047   0.30031   0.00000  Uiso   1.00
C310   C     0.23452   0.59736   0.34234   0.00000  Uiso   1.00
C311   C     0.27311   0.58311   0.36177   0.00000  Uiso   1.00
C312   C     0.30861   0.59366   0.34035   0.00000  Uiso   1.00
C313   C     0.30551   0.61888   0.29974   0.00000  Uiso   1.00
C314   C     0.26683   0.63210   0.27975   0.00000  Uiso   1.00
C315   C     0.19611   0.37114   0.33104   0.00000  Uiso   1.00
C316   C     0.16351   0.49959   0.33468   0.00000  Uiso   1.00
C317   C     0.23041   0.39813   0.34215   0.00000  Uiso   1.00
C318   C     0.24518   0.40272   0.38683   0.00000  Uiso   1.00
C319   C     0.22666   0.37900   0.42112   0.00000  Uiso   1.00
C320   C     0.19265   0.35162   0.41081   0.00000  Uiso   1.00
C321   C     0.17703   0.34835   0.36623   0.00000  Uiso   1.00
C322   C     0.13608   0.62472   0.17084   0.00000  Uiso   1.00
C323   C     0.16734   0.62312   0.14074   0.00000  Uiso   1.00
C324   C     0.15743   0.62038   0.09466   0.00000  Uiso   1.00
C325   C     0.11625   0.61997   0.07799   0.00000  Uiso   1.00
C326   C     0.08500   0.62068   0.10749   0.00000  Uiso   1.00
C327   C     0.14545   0.35972   0.21637   0.00000  Uiso   1.00
C328   C     0.09484   0.62322   0.15361   0.00000  Uiso   1.00
C329   C     0.19105   0.64061   0.28059   0.00000  Uiso   1.00
C330   C     0.18617   0.35554   0.28457   0.00000  Uiso   1.00
C331   C     0.14669   0.64380   0.21544   0.00000  Uiso   1.00
C332   C     0.02286   0.46105   0.26491   0.00000  Uiso   1.00
Cu333  Cu    0.16667   0.54689   0.25000   0.00000  Uiso   1.00
Cu334  Cu    0.16667   0.45311   0.25000   0.00000  Uiso   1.00
F335   F     0.04422   0.42463   0.28479   0.00000  Uiso   1.00
F336   F     0.28852   0.57301   0.20915   0.00000  Uiso   1.00
F337   F     0.29628   0.41844   0.26967   0.00000  Uiso   1.00
F338   F     0.03766   0.57661   0.21743   0.00000  Uiso   1.00
H339   H     0.21528   0.46931   0.02904   0.00000  Uiso   1.00
H340   H     0.01634   0.41559   0.16331   0.00000  Uiso   1.00
H341   H     0.03849   0.43124   0.08682   0.00000  Uiso   1.00
H342   H     0.11045   0.41442   0.07026   0.00000  Uiso   1.00
H343   H     0.16098   0.38554   0.13034   0.00000  Uiso   1.00
H344   H     0.20810   0.59195   0.36099   0.00000  Uiso   1.00
H345   H     0.27553   0.56487   0.39399   0.00000  Uiso   1.00
H346   H     0.00520   0.58309   0.35562   0.00000  Uiso   1.00
H347   H     0.33306   0.62809   0.28362   0.00000  Uiso   1.00
H348   H     0.26497   0.65210   0.24846   0.00000  Uiso   1.00
H349   H     0.24598   0.41524   0.31662   0.00000  Uiso   1.00
H350   H     0.14851   0.42412   0.47090   0.00000  Uiso   1.00
H351   H     0.27156   0.42396   0.39477   0.00000  Uiso   1.00
H352   H     0.23849   0.38204   0.45563   0.00000  Uiso   1.00
H353   H     0.17823   0.66647   0.43730   0.00000  Uiso   1.00
H354   H     0.15114   0.65951   0.35886   0.00000  Uiso   1.00
H355   H     0.19929   0.62648   0.15286   0.00000  Uiso   1.00
H356   H     0.18163   0.61978   0.07179   0.00000  Uiso   1.00
H357   H     0.10858   0.61879   0.04224   0.00000  Uiso   1.00
H358   H     0.05310   0.62109   0.09450   0.00000  Uiso   1.00
H359   H     0.07044   0.62961   0.17502   0.00000  Uiso   1.00
H360   H     0.14730   0.57195   0.46813   0.00000  Uiso   1.00
H361   H     0.09195   0.52469   0.02964   0.00000  Uiso   1.00
H362   H     0.22333   0.47218   0.11136   0.00000  Uiso   1.00
H363   H     0.14927   0.42623   0.38890   0.00000  Uiso   1.00
H364   H     0.14969   0.57328   0.38683   0.00000  Uiso   1.00
H365   H     0.09960   0.52566   0.11211   0.00000  Uiso   1.00
H366   H     0.06574   0.38225   0.22249   0.00000  Uiso   1.00
N367   N     0.16667   0.61736   0.25000   0.00000  Uiso   1.00
N368   N     0.16667   0.38264   0.25000   0.00000  Uiso   1.00
O369   O     0.10655   0.53958   0.24999   0.00000  Uiso   1.00
O370   O     0.22679   0.46042   0.25000   0.00000  Uiso   1.00
O371   O     0.22679   0.53958   0.25000   0.00000  Uiso   1.00
O372   O     0.10655   0.46042   0.24999   0.00000  Uiso   1.00
O373   O     0.16666   0.53959   0.18573   0.00000  Uiso   1.00
O374   O     0.16667   0.46041   0.31427   0.00000  Uiso   1.00
O375   O     0.16667   0.53959   0.31427   0.00000  Uiso   1.00
O376   O     0.16666   0.46041   0.18573   0.00000  Uiso   1.00
C377   C     0.42091   0.50021   0.25025   0.00000  Uiso   1.00
C378   C     0.64353   0.53711   0.22957   0.00000  Uiso   1.00
C379   C     0.64706   0.45923   0.26065   0.00000  Uiso   1.00
C380   C     0.35281   0.53829   0.23228   0.00000  Uiso   1.00
C381   C     0.52342   0.48203   0.04706   0.00000  Uiso   1.00
C382   C     0.48284   0.45676   0.45261   0.00000  Uiso   1.00
C383   C     0.48198   0.53986   0.45103   0.00000  Uiso   1.00
C384   C     0.45404   0.51342   0.04733   0.00000  Uiso   1.00
C385   C     0.52813   0.48401   0.09354   0.00000  Uiso   1.00
C386   C     0.48462   0.45771   0.40629   0.00000  Uiso   1.00
C387   C     0.48454   0.54050   0.40482   0.00000  Uiso   1.00
C388   C     0.57901   0.49961   0.24848   0.00000  Uiso   1.00
C389   C     0.45859   0.51470   0.09387   0.00000  Uiso   1.00
C390   C     0.49597   0.50126   0.11678   0.00000  Uiso   1.00
C391   C     0.48907   0.49922   0.38255   0.00000  Uiso   1.00
C392   C     0.48655   0.49729   0.02391   0.00000  Uiso   1.00
C393   C     0.48296   0.49792   0.47516   0.00000  Uiso   1.00
C394   C     0.62361   0.49846   0.24598   0.00000  Uiso   1.00
C395   C     0.37617   0.50031   0.24997   0.00000  Uiso   1.00
C396   C     0.45104   0.38493   0.18197   0.00000  Uiso   1.00
C397   C     0.40965   0.39205   0.19024   0.00000  Uiso   1.00
C398   C     0.38141   0.40971   0.15638   0.00000  Uiso   1.00
C399   C     0.49953   0.50056   0.16522   0.00000  Uiso   1.00
C400   C     0.39381   0.41824   0.11323   0.00000  Uiso   1.00
C401   C     0.43441   0.40898   0.10395   0.00000  Uiso   1.00
C402   C     0.46299   0.39268   0.13810   0.00000  Uiso   1.00
C403   C     0.56409   0.62047   0.30031   0.00000  Uiso   1.00
C404   C     0.56786   0.59736   0.34234   0.00000  Uiso   1.00
C405   C     0.60644   0.58311   0.36177   0.00000  Uiso   1.00
C406   C     0.64195   0.59366   0.34035   0.00000  Uiso   1.00
C407   C     0.63884   0.61888   0.29974   0.00000  Uiso   1.00
C408   C     0.60016   0.63210   0.27975   0.00000  Uiso   1.00
C409   C     0.52944   0.37114   0.33104   0.00000  Uiso   1.00
C410   C     0.49684   0.49959   0.33468   0.00000  Uiso   1.00
C411   C     0.56375   0.39813   0.34215   0.00000  Uiso   1.00
C412   C     0.57851   0.40272   0.38683   0.00000  Uiso   1.00
C413   C     0.55999   0.37900   0.42112   0.00000  Uiso   1.00
C414   C     0.52599   0.35162   0.41081   0.00000  Uiso   1.00
C415   C     0.51036   0.34835   0.36623   0.00000  Uiso   1.00
C416   C     0.46942   0.62472   0.17084   0.00000  Uiso   1.00
C417   C     0.50067   0.62312   0.14074   0.00000  Uiso   1.00
C418   C     0.49076   0.62038   0.09466   0.00000  Uiso   1.00
C419   C     0.44959   0.61997   0.07799   0.00000  Uiso   1.00
C420   C     0.41833   0.62068   0.10749   0.00000  Uiso   1.00
C421   C     0.47878   0.35972   0.21637   0.00000  Uiso   1.00
C422   C     0.42817   0.62322   0.15361   0.00000  Uiso   1.00
C423   C     0.52438   0.64061   0.28059   0.00000  Uiso   1.00
C424   C     0.51951   0.35554   0.28457   0.00000  Uiso   1.00
C425   C     0.48002   0.64380   0.21544   0.00000  Uiso   1.00
C426   C     0.35619   0.46105   0.26491   0.00000  Uiso   1.00
Cu427  Cu    0.50000   0.54689   0.25000   0.00000  Uiso   1.00
Cu428  Cu    0.50000   0.45311   0.25000   0.00000  Uiso   1.00
F429   F     0.37756   0.42463   0.28479   0.00000  Uiso   1.00
F430   F     0.62185   0.57301   0.20915   0.00000  Uiso   1.00
F431   F     0.62962   0.41844   0.26967   0.00000  Uiso   1.00
F432   F     0.37099   0.57661   0.21743   0.00000  Uiso   1.00
H433   H     0.54862   0.46931   0.02904   0.00000  Uiso   1.00
H434   H     0.34967   0.41559   0.16331   0.00000  Uiso   1.00
H435   H     0.37182   0.43124   0.08682   0.00000  Uiso   1.00
H436   H     0.44379   0.41442   0.07026   0.00000  Uiso   1.00
H437   H     0.49431   0.38554   0.13034   0.00000  Uiso   1.00
H438   H     0.54143   0.59195   0.36099   0.00000  Uiso   1.00
H439   H     0.60886   0.56487   0.39399   0.00000  Uiso   1.00
H440   H     0.33854   0.58309   0.35562   0.00000  Uiso   1.00
H441   H     0.66639   0.62809   0.28362   0.00000  Uiso   1.00
H442   H     0.59831   0.65210   0.24846   0.00000  Uiso   1.00
H443   H     0.57932   0.41524   0.31662   0.00000  Uiso   1.00
H444   H     0.48184   0.42412   0.47090   0.00000  Uiso   1.00
H445   H     0.60490   0.42396   0.39477   0.00000  Uiso   1.00
H446   H     0.57182   0.38204   0.45563   0.00000  Uiso   1.00
H447   H     0.51156   0.66647   0.43730   0.00000  Uiso   1.00
H448   H     0.48447   0.65951   0.35886   0.00000  Uiso   1.00
H449   H     0.53262   0.62648   0.15286   0.00000  Uiso   1.00
H450   H     0.51497   0.61978   0.07179   0.00000  Uiso   1.00
H451   H     0.44192   0.61879   0.04224   0.00000  Uiso   1.00
H452   H     0.38643   0.62109   0.09450   0.00000  Uiso   1.00
H453   H     0.40377   0.62961   0.17502   0.00000  Uiso   1.00
H454   H     0.48063   0.57195   0.46813   0.00000  Uiso   1.00
H455   H     0.42528   0.52469   0.02964   0.00000  Uiso   1.00
H456   H     0.55666   0.47218   0.11136   0.00000  Uiso   1.00
H457   H     0.48261   0.42623   0.38890   0.00000  Uiso   1.00
H458   H     0.48302   0.57328   0.38683   0.00000  Uiso   1.00
H459   H     0.43293   0.52566   0.11211   0.00000  Uiso   1.00
H460   H     0.39907   0.38225   0.22249   0.00000  Uiso   1.00
N461   N     0.50000   0.61736   0.25000   0.00000  Uiso   1.00
N462   N     0.50000   0.38264   0.25000   0.00000  Uiso   1.00
O463   O     0.43988   0.53958   0.24999   0.00000  Uiso   1.00
O464   O     0.56012   0.46042   0.25000   0.00000  Uiso   1.00
O465   O     0.56012   0.53958   0.25000   0.00000  Uiso   1.00
O466   O     0.43988   0.46042   0.24999   0.00000  Uiso   1.00
O467   O     0.50000   0.53959   0.18573   0.00000  Uiso   1.00
O468   O     0.50000   0.46041   0.31427   0.00000  Uiso   1.00
O469   O     0.50000   0.53959   0.31427   0.00000  Uiso   1.00
O470   O     0.50000   0.46041   0.18573   0.00000  Uiso   1.00
C471   C     0.75425   0.50021   0.25025   0.00000  Uiso   1.00
C472   C     0.97686   0.53711   0.22957   0.00000  Uiso   1.00
C473   C     0.98039   0.45923   0.26065   0.00000  Uiso   1.00
C474   C     0.68615   0.53829   0.23228   0.00000  Uiso   1.00
C475   C     0.85675   0.48203   0.04706   0.00000  Uiso   1.00
C476   C     0.81617   0.45676   0.45261   0.00000  Uiso   1.00
C477   C     0.81531   0.53986   0.45103   0.00000  Uiso   1.00
C478   C     0.78737   0.51342   0.04733   0.00000  Uiso   1.00
C479   C     0.86146   0.48401   0.09354   0.00000  Uiso   1.00
C480   C     0.81795   0.45771   0.40629   0.00000  Uiso   1.00
C481   C     0.81788   0.54050   0.40482   0.00000  Uiso   1.00
C482   C     0.91235   0.49961   0.24848   0.00000  Uiso   1.00
C483   C     0.79193   0.51470   0.09387   0.00000  Uiso   1.00
C484   C     0.82931   0.50126   0.11678   0.00000  Uiso   1.00
C485   C     0.82241   0.49922   0.38255   0.00000  Uiso   1.00
C486   C     0.81988   0.49729   0.02391   0.00000  Uiso   1.00
C487   C     0.81629   0.49792   0.47516   0.00000  Uiso   1.00
C488   C     0.95695   0.49846   0.24598   0.00000  Uiso   1.00
C489   C     0.70950   0.50031   0.24997   0.00000  Uiso   1.00
C490   C     0.78437   0.38493   0.18197   0.00000  Uiso   1.00
C491   C     0.74299   0.39205   0.19024   0.00000  Uiso   1.00
C492   C     0.71475   0.40971   0.15638   0.00000  Uiso   1.00
C493   C     0.83286   0.50056   0.16522   0.00000  Uiso   1.00
C494   C     0.72715   0.41824   0.11323   0.00000  Uiso   1.00
C495   C     0.76774   0.40898   0.10395   0.00000  Uiso   1.00
C496   C     0.79632   0.39268   0.13810   0.00000  Uiso   1.00
C497   C     0.89742   0.62047   0.30031   0.00000  Uiso   1.00
C498   C     0.90119   0.59736   0.34234   0.00000  Uiso   1.00
C499   C     0.93978   0.58311   0.36177   0.00000  Uiso   1.00
C500   C     0.97528   0.59366   0.34035   0.00000  Uiso   1.00
C501   C     0.97218   0.61888   0.29974   0.00000  Uiso   1.00
C502   C     0.93350   0.63210   0.27975   0.00000  Uiso   1.00
C503   C     0.86278   0.37114   0.33104   0.00000  Uiso   1.00
C504   C     0.83017   0.49959   0.33468   0.00000  Uiso   1.00
C505   C     0.89708   0.39813   0.34215   0.00000  Uiso   1.00
C506   C     0.91185   0.40272   0.38683   0.00000  Uiso   1.00
C507   C     0.89332   0.37900   0.42112   0.00000  Uiso   1.00
C508   C     0.85932   0.35162   0.41081   0.00000  Uiso   1.00
C509   C     0.84369   0.34835   0.36623   0.00000  Uiso   1.00
C510   C     0.80275   0.62472   0.17084   0.00000  Uiso   1.00
C511   C     0.83400   0.62312   0.14074   0.00000  Uiso   1.00
C512   C     0.82409   0.62038   0.09466   0.00000  Uiso   1.00
C513   C     0.78292   0.61997   0.07799   0.00000  Uiso   1.00
C514   C     0.75166   0.62068   0.10749   0.00000  Uiso   1.00
C515   C     0.81212   0.35972   0.21637   0.00000  Uiso   1.00
C516   C     0.76150   0.62322   0.15361   0.00000  Uiso   1.00
C517   C     0.85772   0.64061   0.28059   0.00000  Uiso   1.00
C518   C     0.85284   0.35554   0.28457   0.00000  Uiso   1.00
C519   C     0.81336   0.64380   0.21544   0.00000  Uiso   1.00
C520   C     0.68953   0.46105   0.26491   0.00000  Uiso   1.00
Cu521  Cu    0.83333   0.54689   0.25000   0.00000  Uiso   1.00
Cu522  Cu    0.83333   0.45311   0.25000   0.00000  Uiso   1.00
F523   F     0.71089   0.42463   0.28479   0.00000  Uiso   1.00
F524   F     0.95519   0.57301   0.20915   0.00000  Uiso   1.00
F525   F     0.96295   0.41844   0.26967   0.00000  Uiso   1.00
F526   F     0.70433   0.57661   0.21743   0.00000  Uiso   1.00
H527   H     0.88195   0.46931   0.02904   0.00000  Uiso   1.00
H528   H     0.68301   0.41559   0.16331   0.00000  Uiso   1.00
H529   H     0.70516   0.43124   0.08682   0.00000  Uiso   1.00
H530   H     0.77712   0.41442   0.07026   0.00000  Uiso   1.00
H531   H     0.82764   0.38554   0.13034   0.00000  Uiso   1.00
H532   H     0.87477   0.59195   0.36099   0.00000  Uiso   1.00
H533   H     0.94220   0.56487   0.39399   0.00000  Uiso   1.00
H534   H     0.67187   0.58309   0.35562   0.00000  Uiso   1.00
H535   H     0.99973   0.62809   0.28362   0.00000  Uiso   1.00
H536   H     0.93164   0.65210   0.24846   0.00000  Uiso   1.00
H537   H     0.91265   0.41524   0.31662   0.00000  Uiso   1.00
H538   H     0.81517   0.42412   0.47090   0.00000  Uiso   1.00
H539   H     0.93823   0.42396   0.39477   0.00000  Uiso   1.00
H540   H     0.90515   0.38204   0.45563   0.00000  Uiso   1.00
H541   H     0.84490   0.66647   0.43730   0.00000  Uiso   1.00
H542   H     0.81780   0.65951   0.35886   0.00000  Uiso   1.00
H543   H     0.86596   0.62648   0.15286   0.00000  Uiso   1.00
H544   H     0.84830   0.61978   0.07179   0.00000  Uiso   1.00
H545   H     0.77525   0.61879   0.04224   0.00000  Uiso   1.00
H546   H     0.71977   0.62109   0.09450   0.00000  Uiso   1.00
H547   H     0.73710   0.62961   0.17502   0.00000  Uiso   1.00
H548   H     0.81396   0.57195   0.46813   0.00000  Uiso   1.00
H549   H     0.75861   0.52469   0.02964   0.00000  Uiso   1.00
H550   H     0.89000   0.47218   0.11136   0.00000  Uiso   1.00
H551   H     0.81594   0.42623   0.38890   0.00000  Uiso   1.00
H552   H     0.81635   0.57328   0.38683   0.00000  Uiso   1.00
H553   H     0.76626   0.52566   0.11211   0.00000  Uiso   1.00
H554   H     0.73240   0.38225   0.22249   0.00000  Uiso   1.00
N555   N     0.83333   0.61736   0.25000   0.00000  Uiso   1.00
N556   N     0.83333   0.38264   0.25000   0.00000  Uiso   1.00
O557   O     0.77321   0.53958   0.24999   0.00000  Uiso   1.00
O558   O     0.89345   0.46042   0.25000   0.00000  Uiso   1.00
O559   O     0.89345   0.53958   0.25000   0.00000  Uiso   1.00
O560   O     0.77321   0.46042   0.24999   0.00000  Uiso   1.00
O561   O     0.83333   0.53959   0.18573   0.00000  Uiso   1.00
O562   O     0.83334   0.46041   0.31427   0.00000  Uiso   1.00
O563   O     0.83334   0.53959   0.31427   0.00000  Uiso   1.00
O564   O     0.83333   0.46041   0.18573   0.00000  Uiso   1.00
C565   C     0.08758   0.83355   0.25025   0.00000  Uiso   1.00
C566   C     0.31020   0.87044   0.22957   0.00000  Uiso   1.00
C567   C     0.31373   0.79256   0.26065   0.00000  Uiso   1.00
C568   C     0.01948   0.87162   0.23228   0.00000  Uiso   1.00
C569   C     0.19009   0.81537   0.04706   0.00000  Uiso   1.00
C570   C     0.14950   0.79010   0.45261   0.00000  Uiso   1.00
C571   C     0.14865   0.87320   0.45103   0.00000  Uiso   1.00
C572   C     0.12071   0.84675   0.04733   0.00000  Uiso   1.00
C573   C     0.19480   0.81735   0.09354   0.00000  Uiso   1.00
C574   C     0.15129   0.79104   0.40629   0.00000  Uiso   1.00
C575   C     0.15121   0.87383   0.40482   0.00000  Uiso   1.00
C576   C     0.24568   0.83295   0.24848   0.00000  Uiso   1.00
C577   C     0.12526   0.84803   0.09387   0.00000  Uiso   1.00
C578   C     0.16264   0.83459   0.11678   0.00000  Uiso   1.00
C579   C     0.15574   0.83255   0.38255   0.00000  Uiso   1.00
C580   C     0.15322   0.83063   0.02391   0.00000  Uiso   1.00
C581   C     0.14963   0.83126   0.47516   0.00000  Uiso   1.00
C582   C     0.29028   0.83180   0.24598   0.00000  Uiso   1.00
C583   C     0.04283   0.83365   0.24997   0.00000  Uiso   1.00
C584   C     0.11771   0.71826   0.18197   0.00000  Uiso   1.00
C585   C     0.07632   0.72539   0.19024   0.00000  Uiso   1.00
C586   C     0.04808   0.74305   0.15638   0.00000  Uiso   1.00
C587   C     0.16620   0.83389   0.16522   0.00000  Uiso   1.00
C588   C     0.06048   0.75157   0.11323   0.00000  Uiso   1.00
C589   C     0.10108   0.74232   0.10395   0.00000  Uiso   1.00
C590   C     0.12965   0.72602   0.13810   0.00000  Uiso   1.00
C591   C     0.23075   0.95380   0.30031   0.00000  Uiso   1.00
C592   C     0.23452   0.93070   0.34234   0.00000  Uiso   1.00
C593   C     0.27311   0.91644   0.36177   0.00000  Uiso   1.00
C594   C     0.30861   0.92700   0.34035   0.00000  Uiso   1.00
C595   C     0.30551   0.95222   0.29974   0.00000  Uiso   1.00
C596   C     0.26683   0.96543   0.27975   0.00000  Uiso   1.00
C597   C     0.19611   0.70447   0.33104   0.00000  Uiso   1.00
C598   C     0.16351   0.83292   0.33468   0.00000  Uiso   1.00
C599   C     0.23041   0.73146   0.34215   0.00000  Uiso   1.00
C600   C     0.24518   0.73605   0.38683   0.00000  Uiso   1.00
C601   C     0.22666   0.71233   0.42112   0.00000  Uiso   1.00
C602   C     0.19265   0.68495   0.41081   0.00000  Uiso   1.00
C603   C     0.17703   0.68168   0.36623   0.00000  Uiso   1.00
C604   C     0.13608   0.95806   0.17084   0.00000  Uiso   1.00
C605   C     0.16734   0.95646   0.14074   0.00000  Uiso   1.00
C606   C     0.15743   0.95371   0.09466   0.00000  Uiso   1.00
C607   C     0.11625   0.95330   0.07799   0.00000  Uiso   1.00
C608   C     0.08500   0.95401   0.10749   0.00000  Uiso   1.00
C609   C     0.14545   0.69305   0.21637   0.00000  Uiso   1.00
C610   C     0.09484   0.95656   0.15361   0.00000  Uiso   1.00
C611   C     0.19105   0.97394   0.28059   0.00000  Uiso   1.00
C612   C     0.18617   0.68887   0.28457   0.00000  Uiso   1.00
C613   C     0.14669   0.97713   0.21544   0.00000  Uiso   1.00
C614   C     0.02286   0.79438   0.26491   0.00000  Uiso   1.00
Cu615  Cu    0.16667   0.88022   0.25000   0.00000  Uiso   1.00
Cu616  Cu    0.16667   0.78645   0.25000   0.00000  Uiso   1.00
F617   F     0.04422   0.75796   0.28479   0.00000  Uiso   1.00
F618   F     0.28852   0.90634   0.20915   0.00000  Uiso   1.00
F619   F     0.29628   0.75178   0.26967   0.00000  Uiso   1.00
F620   F     0.03766   0.90994   0.21743   0.00000  Uiso   1.00
H621   H     0.21528   0.80265   0.02904   0.00000  Uiso   1.00
H622   H     0.01634   0.74893   0.16331   0.00000  Uiso   1.00
H623   H     0.03849   0.76457   0.08682   0.00000  Uiso   1.00
H624   H     0.11045   0.74775   0.07026   0.00000  Uiso   1.00
H625   H     0.16098   0.71887   0.13034   0.00000  Uiso   1.00
H626   H     0.20810   0.92528   0.36099   0.00000  Uiso   1.00
H627   H     0.27553   0.89821   0.39399   0.00000  Uiso   1.00
H628   H     0.00520   0.91642   0.35562   0.00000  Uiso   1.00
H629   H     0.33306   0.96143   0.28362   0.00000  Uiso   1.00
H630   H     0.26497   0.98543   0.24846   0.00000  Uiso   1.00
H631   H     0.24598   0.74857   0.31662   0.00000  Uiso   1.00
H632   H     0.14851   0.75746   0.47090   0.00000  Uiso   1.00
H633   H     0.27156   0.75729   0.39477   0.00000  Uiso   1.00
H634   H     0.23849   0.71537   0.45563   0.00000  Uiso   1.00
H635   H     0.17823   0.99981   0.43730   0.00000  Uiso   1.00
H636   H     0.15114   0.99284   0.35886   0.00000  Uiso   1.00
H637   H     0.19929   0.95982   0.15286   0.00000  Uiso   1.00
H638   H     0.18163   0.95311   0.07179   0.00000  Uiso   1.00
H639   H     0.10858   0.95213   0.04224   0.00000  Uiso   1.00
H640   H     0.05310   0.95442   0.09450   0.00000  Uiso   1.00
H641   H     0.07044   0.96294   0.17502   0.00000  Uiso   1.00
H642   H     0.14730   0.90529   0.46813   0.00000  Uiso   1.00
H643   H     0.09195   0.85802   0.02964   0.00000  Uiso   1.00
H644   H     0.22333   0.80552   0.11136   0.00000  Uiso   1.00
H645   H     0.14927   0.75956   0.38890   0.00000  Uiso   1.00
H646   H     0.14969   0.90661   0.38683   0.00000  Uiso   1.00
H647   H     0.09960   0.85900   0.11211   0.00000  Uiso   1.00
H648   H     0.06574   0.71559   0.22249   0.00000  Uiso   1.00
N649   N     0.16667   0.95069   0.25000   0.00000  Uiso   1.00
N650   N     0.16667   0.71598   0.25000   0.00000  Uiso   1.00
O651   O     0.10655   0.87291   0.24999   0.00000  Uiso   1.00
O652   O     0.22679   0.79375   0.25000   0.00000  Uiso   1.00
O653   O     0.22679   0.87291   0.25000   0.00000  Uiso   1.00
O654   O     0.10655   0.79375   0.24999   0.00000  Uiso   1.00
O655   O     0.16666   0.87293   0.18573   0.00000  Uiso   1.00
O656   O     0.16667   0.79374   0.31427   0.00000  Uiso   1.00
O657   O     0.16667   0.87293   0.31427   0.00000  Uiso   1.00
O658   O     0.16666   0.79374   0.18573   0.00000  Uiso   1.00
C659   C     0.42091   0.83355   0.25025   0.00000  Uiso   1.00
C660   C     0.64353   0.87044   0.22957   0.00000  Uiso   1.00
C661   C     0.64706   0.79256   0.26065   0.00000  Uiso   1.00
C662   C     0.35281   0.87162   0.23228   0.00000  Uiso   1.00
C663   C     0.52342   0.81537   0.04706   0.00000  Uiso   1.00
C664   C     0.48284   0.79010   0.45261   0.00000  Uiso   1.00
C665   C     0.48198   0.87320   0.45103   0.00000  Uiso   1.00
C666   C     0.45404   0.84675   0.04733   0.00000  Uiso   1.00
C667   C     0.52813   0.81735   0.09354   0.00000  Uiso   1.00
C668   C     0.48462   0.79104   0.40629   0.00000  Uiso   1.00
C669   C     0.48454   0.87383   0.40482   0.00000  Uiso   1.00
C670   C     0.57901   0.83295   0.24848   0.00000  Uiso   1.00
C671   C     0.45859   0.84803   0.09387   0.00000  Uiso   1.00
C672   C     0.49597   0.83459   0.11678   0.00000  Uiso   1.00
C673   C     0.48907   0.83255   0.38255   0.00000  Uiso   1.00
C674   C     0.48655   0.83063   0.02391   0.00000  Uiso   1.00
C675   C     0.48296   0.83126   0.47516   0.00000  Uiso   1.00
C676   C     0.62361   0.83180   0.24598   0.00000  Uiso   1.00
C677   C     0.37617   0.83365   0.24997   0.00000  Uiso   1.00
C678   C     0.45104   0.71826   0.18197   0.00000  Uiso   1.00
C679   C     0.40965   0.72539   0.19024   0.00000  Uiso   1.00
C680   C     0.38141   0.74305   0.15638   0.00000  Uiso   1.00
C681   C     0.49953   0.83389   0.16522   0.00000  Uiso   1.00
C682   C     0.39381   0.75157   0.11323   0.00000  Uiso   1.00
C683   C     0.43441   0.74232   0.10395   0.00000  Uiso   1.00
C684   C     0.46299   0.72602   0.13810   0.00000  Uiso   1.00
C685   C     0.56409   0.95380   0.30031   0.00000  Uiso   1.00
C686   C     0.56786   0.93070   0.34234   0.00000  Uiso   1.00
C687   C     0.60644   0.91644   0.36177   0.00000  Uiso   1.00
C688   C     0.64195   0.92700   0.34035   0.00000  Uiso   1.00
C689   C     0.63884   0.95222   0.29974   0.00000  Uiso   1.00
C690   C     0.60016   0.96543   0.27975   0.00000  Uiso   1.00
C691   C     0.52944   0.70447   0.33104   0.00000  Uiso   1.00
C692   C     0.49684   0.83292   0.33468   0.00000  Uiso   1.00
C693   C     0.56375   0.73146   0.34215   0.00000  Uiso   1.00
C694   C     0.57851   0.73605   0.38683   0.00000  Uiso   1.00
C695   C     0.55999   0.71233   0.42112   0.00000  Uiso   1.00
C696   C     0.52599   0.68495   0.41081   0.00000  Uiso   1.00
C697   C     0.51036   0.68168   0.36623   0.00000  Uiso   1.00
C698   C     0.46942   0.95806   0.17084   0.00000  Uiso   1.00
C699   C     0.50067   0.95646   0.14074   0.00000  Uiso   1.00
C700   C     0.49076   0.95371   0.09466   0.00000  Uiso   1.00
C701   C     0.44959   0.95330   0.07799   0.00000  Uiso   1.00
C702   C     0.41833   0.95401   0.10749   0.00000  Uiso   1.00
C703   C     0.47878   0.69305   0.21637   0.00000  Uiso   1.00
C704   C     0.42817   0.95656   0.15361   0.00000  Uiso   1.00
C705   C     0.52438   0.97394   0.28059   0.00000  Uiso   1.00
C706   C     0.51951   0.68887   0.28457   0.00000  Uiso   1.00
C707   C     0.48002   0.97713   0.21544   0.00000  Uiso   1.00
C708   C     0.35619   0.79438   0.26491   0.00000  Uiso   1.00
Cu709  Cu    0.50000   0.88022   0.25000   0.00000  Uiso   1.00
Cu710  Cu    0.50000   0.78645   0.25000   0.00000  Uiso   1.00
F711   F     0.37756   0.75796   0.28479   0.00000  Uiso   1.00
F712   F     0.62185   0.90634   0.20915   0.00000  Uiso   1.00
F713   F     0.62962   0.75178   0.26967   0.00000  Uiso   1.00
F714   F     0.37099   0.90994   0.21743   0.00000  Uiso   1.00
H715   H     0.54862   0.80265   0.02904   0.00000  Uiso   1.00
H716   H     0.34967   0.74893   0.16331   0.00000  Uiso   1.00
H717   H     0.37182   0.76457   0.08682   0.00000  Uiso   1.00
H718   H     0.44379   0.74775   0.07026   0.00000  Uiso   1.00
H719   H     0.49431   0.71887   0.13034   0.00000  Uiso   1.00
H720   H     0.54143   0.92528   0.36099   0.00000  Uiso   1.00
H721   H     0.60886   0.89821   0.39399   0.00000  Uiso   1.00
H722   H     0.33854   0.91642   0.35562   0.00000  Uiso   1.00
H723   H     0.66639   0.96143   0.28362   0.00000  Uiso   1.00
H724   H     0.59831   0.98543   0.24846   0.00000  Uiso   1.00
H725   H     0.57932   0.74857   0.31662   0.00000  Uiso   1.00
H726   H     0.48184   0.75746   0.47090   0.00000  Uiso   1.00
H727   H     0.60490   0.75729   0.39477   0.00000  Uiso   1.00
H728   H     0.57182   0.71537   0.45563   0.00000  Uiso   1.00
H729   H     0.51156   0.99981   0.43730   0.00000  Uiso   1.00
H730   H     0.48447   0.99284   0.35886   0.00000  Uiso   1.00
H731   H     0.53262   0.95982   0.15286   0.00000  Uiso   1.00
H732   H     0.51497   0.95311   0.07179   0.00000  Uiso   1.00
H733   H     0.44192   0.95213   0.04224   0.00000  Uiso   1.00
H734   H     0.38643   0.95442   0.09450   0.00000  Uiso   1.00
H735   H     0.40377   0.96294   0.17502   0.00000  Uiso   1.00
H736   H     0.48063   0.90529   0.46813   0.00000  Uiso   1.00
H737   H     0.42528   0.85802   0.02964   0.00000  Uiso   1.00
H738   H     0.55666   0.80552   0.11136   0.00000  Uiso   1.00
H739   H     0.48261   0.75956   0.38890   0.00000  Uiso   1.00
H740   H     0.48302   0.90661   0.38683   0.00000  Uiso   1.00
H741   H     0.43293   0.85900   0.11211   0.00000  Uiso   1.00
H742   H     0.39907   0.71559   0.22249   0.00000  Uiso   1.00
N743   N     0.50000   0.95069   0.25000   0.00000  Uiso   1.00
N744   N     0.50000   0.71598   0.25000   0.00000  Uiso   1.00
O745   O     0.43988   0.87291   0.24999   0.00000  Uiso   1.00
O746   O     0.56012   0.79375   0.25000   0.00000  Uiso   1.00
O747   O     0.56012   0.87291   0.25000   0.00000  Uiso   1.00
O748   O     0.43988   0.79375   0.24999   0.00000  Uiso   1.00
O749   O     0.50000   0.87293   0.18573   0.00000  Uiso   1.00
O750   O     0.50000   0.79374   0.31427   0.00000  Uiso   1.00
O751   O     0.50000   0.87293   0.31427   0.00000  Uiso   1.00
O752   O     0.50000   0.79374   0.18573   0.00000  Uiso   1.00
C753   C     0.75425   0.83355   0.25025   0.00000  Uiso   1.00
C754   C     0.97686   0.87044   0.22957   0.00000  Uiso   1.00
C755   C     0.98039   0.79256   0.26065   0.00000  Uiso   1.00
C756   C     0.68615   0.87162   0.23228   0.00000  Uiso   1.00
C757   C     0.85675   0.81537   0.04706   0.00000  Uiso   1.00
C758   C     0.81617   0.79010   0.45261   0.00000  Uiso   1.00
C759   C     0.81531   0.87320   0.45103   0.00000  Uiso   1.00
C760   C     0.78737   0.84675   0.04733   0.00000  Uiso   1.00
C761   C     0.86146   0.81735   0.09354   0.00000  Uiso   1.00
C762   C     0.81795   0.79104   0.40629   0.00000  Uiso   1.00
C763   C     0.81788   0.87383   0.40482   0.00000  Uiso   1.00
C764   C     0.91235   0.83295   0.24848   0.00000  Uiso   1.00
C765   C     0.79193   0.84803   0.09387   0.00000  Uiso   1.00
C766   C     0.82931   0.83459   0.11678   0.00000  Uiso   1.00
C767   C     0.82241   0.83255   0.38255   0.00000  Uiso   1.00
C768   C     0.81988   0.83063   0.02391   0.00000  Uiso   1.00
C769   C     0.81629   0.83126   0.47516   0.00000  Uiso   1.00
C770   C     0.95695   0.83180   0.24598   0.00000  Uiso   1.00
C771   C     0.70950   0.83365   0.24997   0.00000  Uiso   1.00
C772   C     0.78437   0.71826   0.18197   0.00000  Uiso   1.00
C773   C     0.74299   0.72539   0.19024   0.00000  Uiso   1.00
C774   C     0.71475   0.74305   0.15638   0.00000  Uiso   1.00
C775   C     0.83286   0.83389   0.16522   0.00000  Uiso   1.00
C776   C     0.72715   0.75157   0.11323   0.00000  Uiso   1.00
C777   C     0.76774   0.74232   0.10395   0.00000  Uiso   1.00
C778   C     0.79632   0.72602   0.13810   0.00000  Uiso   1.00
C779   C     0.89742   0.95380   0.30031   0.00000  Uiso   1.00
C780   C     0.90119   0.93070   0.34234   0.00000  Uiso   1.00
C781   C     0.93978   0.91644   0.36177   0.00000  Uiso   1.00
C782   C     0.97528   0.92700   0.34035   0.00000  Uiso   1.00
C783   C     0.97218   0.95222   0.29974   0.00000  Uiso   1.00
C784   C     0.93350   0.96543   0.27975   0.00000  Uiso   1.00
C785   C     0.86278   0.70447   0.33104   0.00000  Uiso   1.00
C786   C     0.83017   0.83292   0.33468   0.00000  Uiso   1.00
C787   C     0.89708   0.73146   0.34215   0.00000  Uiso   1.00
C788   C     0.91185   0.73605   0.38683   0.00000  Uiso   1.00
C789   C     0.89332   0.71233   0.42112   0.00000  Uiso   1.00
C790   C     0.85932   0.68495   0.41081   0.00000  Uiso   1.00
C791   C     0.84369   0.68168   0.36623   0.00000  Uiso   1.00
C792   C     0.80275   0.95806   0.17084   0.00000  Uiso   1.00
C793   C     0.83400   0.95646   0.14074   0.00000  Uiso   1.00
C794   C     0.82409   0.95371   0.09466   0.00000  Uiso   1.00
C795   C     0.78292   0.95330   0.07799   0.00000  Uiso   1.00
C796   C     0.75166   0.95401   0.10749   0.00000  Uiso   1.00
C797   C     0.81212   0.69305   0.21637   0.00000  Uiso   1.00
C798   C     0.76150   0.95656   0.15361   0.00000  Uiso   1.00
C799   C     0.85772   0.97394   0.28059   0.00000  Uiso   1.00
C800   C     0.85284   0.68887   0.28457   0.00000  Uiso   1.00
C801   C     0.81336   0.97713   0.21544   0.00000  Uiso   1.00
C802   C     0.68953   0.79438   0.26491   0.00000  Uiso   1.00
Cu803  Cu    0.83333   0.88022   0.25000   0.00000  Uiso   1.00
Cu804  Cu    0.83333   0.78645   0.25000   0.00000  Uiso   1.00
F805   F     0.71089   0.75796   0.28479   0.00000  Uiso   1.00
F806   F     0.95519   0.90634   0.20915   0.00000  Uiso   1.00
F807   F     0.96295   0.75178   0.26967   0.00000  Uiso   1.00
F808   F     0.70433   0.90994   0.21743   0.00000  Uiso   1.00
H809   H     0.88195   0.80265   0.02904   0.00000  Uiso   1.00
H810   H     0.68301   0.74893   0.16331   0.00000  Uiso   1.00
H811   H     0.70516   0.76457   0.08682   0.00000  Uiso   1.00
H812   H     0.77712   0.74775   0.07026   0.00000  Uiso   1.00
H813   H     0.82764   0.71887   0.13034   0.00000  Uiso   1.00
H814   H     0.87477   0.92528   0.36099   0.00000  Uiso   1.00
H815   H     0.94220   0.89821   0.39399   0.00000  Uiso   1.00
H816   H     0.67187   0.91642   0.35562   0.00000  Uiso   1.00
H817   H     0.99973   0.96143   0.28362   0.00000  Uiso   1.00
H818   H     0.93164   0.98543   0.24846   0.00000  Uiso   1.00
H819   H     0.91265   0.74857   0.31662   0.00000  Uiso   1.00
H820   H     0.81517   0.75746   0.47090   0.00000  Uiso   1.00
H821   H     0.93823   0.75729   0.39477   0.00000  Uiso   1.00
H822   H     0.90515   0.71537   0.45563   0.00000  Uiso   1.00
H823   H     0.84490   0.99981   0.43730   0.00000  Uiso   1.00
H824   H     0.81780   0.99284   0.35886   0.00000  Uiso   1.00
H825   H     0.86596   0.95982   0.15286   0.00000  Uiso   1.00
H826   H     0.84830   0.95311   0.07179   0.00000  Uiso   1.00
H827   H     0.77525   0.95213   0.04224   0.00000  Uiso   1.00
H828   H     0.71977   0.95442   0.09450   0.00000  Uiso   1.00
H829   H     0.73710   0.96294   0.17502   0.00000  Uiso   1.00
H830   H     0.81396   0.90529   0.46813   0.00000  Uiso   1.00
H831   H     0.75861   0.85802   0.02964   0.00000  Uiso   1.00
H832   H     0.89000   0.80552   0.11136   0.00000  Uiso   1.00
H833   H     0.81594   0.75956   0.38890   0.00000  Uiso   1.00
H834   H     0.81635   0.90661   0.38683   0.00000  Uiso   1.00
H835   H     0.76626   0.85900   0.11211   0.00000  Uiso   1.00
H836   H     0.73240   0.71559   0.22249   0.00000  Uiso   1.00
N837   N     0.83333   0.95069   0.25000   0.00000  Uiso   1.00
N838   N     0.83333   0.71598   0.25000   0.00000  Uiso   1.00
O839   O     0.77321   0.87291   0.24999   0.00000  Uiso   1.00
O840   O     0.89345   0.79375   0.25000   0.00000  Uiso   1.00
O841   O     0.89345   0.87291   0.25000   0.00000  Uiso   1.00
O842   O     0.77321   0.79375   0.24999   0.00000  Uiso   1.00
O843   O     0.83333   0.87293   0.18573   0.00000  Uiso   1.00
O844   O     0.83334   0.79374   0.31427   0.00000  Uiso   1.00
O845   O     0.83334   0.87293   0.31427   0.00000  Uiso   1.00
O846   O     0.83333   0.79374   0.18573   0.00000  Uiso   1.00
C847   C     0.08758   0.16688   0.75025   0.00000  Uiso   1.00
C848   C     0.31020   0.20377   0.72957   0.00000  Uiso   1.00
C849   C     0.31373   0.12589   0.76065   0.00000  Uiso   1.00
C850   C     0.01948   0.20496   0.73228   0.00000  Uiso   1.00
C851   C     0.19009   0.14870   0.54706   0.00000  Uiso   1.00
C852   C     0.14950   0.12343   0.95261   0.00000  Uiso   1.00
C853   C     0.14865   0.20653   0.95103   0.00000  Uiso   1.00
C854   C     0.12071   0.18009   0.54733   0.00000  Uiso   1.00
C855   C     0.19480   0.15068   0.59354   0.00000  Uiso   1.00
C856   C     0.15129   0.12438   0.90629   0.00000  Uiso   1.00
C857   C     0.15121   0.20717   0.90482   0.00000  Uiso   1.00
C858   C     0.24568   0.16628   0.74848   0.00000  Uiso   1.00
C859   C     0.12526   0.18136   0.59387   0.00000  Uiso   1.00
C860   C     0.16264   0.16792   0.61678   0.00000  Uiso   1.00
C861   C     0.15574   0.16589   0.88255   0.00000  Uiso   1.00
C862   C     0.15322   0.16396   0.52391   0.00000  Uiso   1.00
C863   C     0.14963   0.16459   0.97516   0.00000  Uiso   1.00
C864   C     0.29028   0.16513   0.74598   0.00000  Uiso   1.00
C865   C     0.04283   0.16698   0.74997   0.00000  Uiso   1.00
C866   C     0.11771   0.05159   0.68197   0.00000  Uiso   1.00
C867   C     0.07632   0.05872   0.69024   0.00000  Uiso   1.00
C868   C     0.04808   0.07638   0.65638   0.00000  Uiso   1.00
C869   C     0.16620   0.16722   0.66522   0.00000  Uiso   1.00
C870   C     0.06048   0.08490   0.61323   0.00000  Uiso   1.00
C871   C     0.10108   0.07565   0.60395   0.00000  Uiso   1.00
C872   C     0.12965   0.05935   0.63810   0.00000  Uiso   1.00
C873   C     0.23075   0.28713   0.80031   0.00000  Uiso   1.00
C874   C     0.23452   0.26403   0.84234   0.00000  Uiso   1.00
C875   C     0.27311   0.24977   0.86177   0.00000  Uiso   1.00
C876   C     0.30861   0.26033   0.84035   0.00000  Uiso   1.00
C877   C     0.30551   0.28555   0.79974   0.00000  Uiso   1.00
C878   C     0.26683   0.29876   0.77975   0.00000  Uiso   1.00
C879   C     0.19611   0.03781   0.83104   0.00000  Uiso   1.00
C880   C     0.16351   0.16626   0.83468   0.00000  Uiso   1.00
C881   C     0.23041   0.06479   0.84215   0.00000  Uiso   1.00
C882   C     0.24518   0.06938   0.88683   0.00000  Uiso   1.00
C883   C     0.22666   0.04567   0.92112   0.00000  Uiso   1.00
C884   C     0.19265   0.01828   0.91081   0.00000  Uiso   1.00
C885   C     0.17703   0.01502   0.86623   0.00000  Uiso   1.00
C886   C     0.13608   0.29139   0.67084   0.00000  Uiso   1.00
C887   C     0.16734   0.28979   0.64074   0.00000  Uiso   1.00
C888   C     0.15743   0.28705   0.59466   0.00000  Uiso   1.00
C889   C     0.11625   0.28663   0.57799   0.00000  Uiso   1.00
C890   C     0.08500   0.28734   0.60749   0.00000  Uiso   1.00
C891   C     0.14545   0.02638   0.71637   0.00000  Uiso   1.00
C892   C     0.09484   0.28989   0.65361   0.00000  Uiso   1.00
C893   C     0.19105   0.30728   0.78059   0.00000  Uiso   1.00
C894   C     0.18617   0.02221   0.78457   0.00000  Uiso   1.00
C895   C     0.14669   0.31047   0.71544   0.00000  Uiso   1.00
C896   C     0.02286   0.12771   0.76491   0.00000  Uiso   1.00
Cu897  Cu    0.16667   0.21355   0.75000   0.00000  Uiso   1.00
Cu898  Cu    0.16667   0.11978   0.75000   0.00000  Uiso   1.00
F899   F     0.04422   0.09129   0.78479   0.00000  Uiso   1.00
F900   F     0.28852   0.23967   0.70915   0.00000  Uiso   1.00
F901   F     0.29628   0.08511   0.76967   0.00000  Uiso   1.00
F902   F     0.03766   0.24328   0.71743   0.00000  Uiso   1.00
H903   H     0.21528   0.13598   0.52904   0.00000  Uiso   1.00
H904   H     0.01634   0.08226   0.66331   0.00000  Uiso   1.00
H905   H     0.03849   0.09791   0.58682   0.00000  Uiso   1.00
H906   H     0.11045   0.08109   0.57026   0.00000  Uiso   1.00
H907   H     0.16098   0.05221   0.63034   0.00000  Uiso   1.00
H908   H     0.20810   0.25862   0.86099   0.00000  Uiso   1.00
H909   H     0.27553   0.23154   0.89399   0.00000  Uiso   1.00
H910   H     0.00520   0.24975   0.85562   0.00000  Uiso   1.00
H911   H     0.33306   0.29476   0.78362   0.00000  Uiso   1.00
H912   H     0.26497   0.31876   0.74846   0.00000  Uiso   1.00
H913   H     0.24598   0.08191   0.81662   0.00000  Uiso   1.00
H914   H     0.14851   0.09079   0.97090   0.00000  Uiso   1.00
H915   H     0.27156   0.09063   0.89477   0.00000  Uiso   1.00
H916   H     0.23849   0.04870   0.95563   0.00000  Uiso   1.00
H917   H     0.17823   0.33314   0.93730   0.00000  Uiso   1.00
H918   H     0.15114   0.32617   0.85886   0.00000  Uiso   1.00
H919   H     0.19929   0.29315   0.65286   0.00000  Uiso   1.00
H920   H     0.18163   0.28644   0.57179   0.00000  Uiso   1.00
H921   H     0.10858   0.28546   0.54224   0.00000  Uiso   1.00
H922   H     0.05310   0.28775   0.59450   0.00000  Uiso   1.00
H923   H     0.07044   0.29627   0.67502   0.00000  Uiso   1.00
H924   H     0.14730   0.23862   0.96813   0.00000  Uiso   1.00
H925   H     0.09195   0.19135   0.52964   0.00000  Uiso   1.00
H926   H     0.22333   0.13885   0.61136   0.00000  Uiso   1.00
H927   H     0.14927   0.09289   0.88890   0.00000  Uiso   1.00
H928   H     0.14969   0.23994   0.88683   0.00000  Uiso   1.00
H929   H     0.09960   0.19233   0.61211   0.00000  Uiso   1.00
H930   H     0.06574   0.04892   0.72249   0.00000  Uiso   1.00
N931   N     0.16667   0.28402   0.75000   0.00000  Uiso   1.00
N932   N     0.16667   0.04931   0.75000   0.00000  Uiso   1.00
O933   O     0.10655   0.20625   0.74999   0.00000  Uiso   1.00
O934   O     0.22679   0.12709   0.75000   0.00000  Uiso   1.00
O935   O     0.22679   0.20625   0.75000   0.00000  Uiso   1.00
O936   O     0.10655   0.12709   0.74999   0.00000  Uiso   1.00
O937   O     0.16666   0.20626   0.68573   0.00000  Uiso   1.00
O938   O     0.16667   0.12707   0.81427   0.00000  Uiso   1.00
O939   O     0.16667   0.20626   0.81427   0.00000  Uiso   1.00
O940   O     0.16666   0.12707   0.68573   0.00000  Uiso   1.00
C941   C     0.42091   0.16688   0.75025   0.00000  Uiso   1.00
C942   C     0.64353   0.20377   0.72957   0.00000  Uiso   1.00
C943   C     0.64706   0.12589   0.76065   0.00000  Uiso   1.00
C944   C     0.35281   0.20496   0.73228   0.00000  Uiso   1.00
C945   C     0.52342   0.14870   0.54706   0.00000  Uiso   1.00
C946   C     0.48284   0.12343   0.95261   0.00000  Uiso   1.00
C947   C     0.48198   0.20653   0.95103   0.00000  Uiso   1.00
C948   C     0.45404   0.18009   0.54733   0.00000  Uiso   1.00
C949   C     0.52813   0.15068   0.59354   0.00000  Uiso   1.00
C950   C     0.48462   0.12438   0.90629   0.00000  Uiso   1.00
C951   C     0.48454   0.20717   0.90482   0.00000  Uiso   1.00
C952   C     0.57901   0.16628   0.74848   0.00000  Uiso   1.00
C953   C     0.45859   0.18136   0.59387   0.00000  Uiso   1.00
C954   C     0.49597   0.16792   0.61678   0.00000  Uiso   1.00
C955   C     0.48907   0.16589   0.88255   0.00000  Uiso   1.00
C956   C     0.48655   0.16396   0.52391   0.00000  Uiso   1.00
C957   C     0.48296   0.16459   0.97516   0.00000  Uiso   1.00
C958   C     0.62361   0.16513   0.74598   0.00000  Uiso   1.00
C959   C     0.37617   0.16698   0.74997   0.00000  Uiso   1.00
C960   C     0.45104   0.05159   0.68197   0.00000  Uiso   1.00
C961   C     0.40965   0.05872   0.69024   0.00000  Uiso   1.00
C962   C     0.38141   0.07638   0.65638   0.00000  Uiso   1.00
C963   C     0.49953   0.16722   0.66522   0.00000  Uiso   1.00
C964   C     0.39381   0.08490   0.61323   0.00000  Uiso   1.00
C965   C     0.43441   0.07565   0.60395   0.00000  Uiso   1.00
C966   C     0.46299   0.05935   0.63810   0.00000  Uiso   1.00
C967   C     0.56409   0.28713   0.80031   0.00000  Uiso   1.00
C968   C     0.56786   0.26403   0.84234   0.00000  Uiso   1.00
C969   C     0.60644   0.24977   0.86177   0.00000  Uiso   1.00
C970   C     0.64195   0.26033   0.84035   0.00000  Uiso   1.00
C971   C     0.63884   0.28555   0.79974   0.00000  Uiso   1.00
C972   C     0.60016   0.29876   0.77975   0.00000  Uiso   1.00
C973   C     0.52944   0.03781   0.83104   0.00000  Uiso   1.00
C974   C     0.49684   0.16626   0.83468   0.00000  Uiso   1.00
C975   C     0.56375   0.06479   0.84215   0.00000  Uiso   1.00
C976   C     0.57851   0.06938   0.88683   0.00000  Uiso   1.00
C977   C     0.55999   0.04567   0.92112   0.00000  Uiso   1.00
C978   C     0.52599   0.01828   0.91081   0.00000  Uiso   1.00
C979   C     0.51036   0.01502   0.86623   0.00000  Uiso   1.00
C980   C     0.46942   0.29139   0.67084   0.00000  Uiso   1.00
C981   C     0.50067   0.28979   0.64074   0.00000  Uiso   1.00
C982   C     0.49076   0.28705   0.59466   0.00000  Uiso   1.00
C983   C     0.44959   0.28663   0.57799   0.00000  Uiso   1.00
C984   C     0.41833   0.28734   0.60749   0.00000  Uiso   1.00
C985   C     0.47878   0.02638   0.71637   0.00000  Uiso   1.00
C986   C     0.42817   0.28989   0.65361   0.00000  Uiso   1.00
C987   C     0.52438   0.30728   0.78059   0.00000  Uiso   1.00
C988   C     0.51951   0.02221   0.78457   0.00000  Uiso   1.00
C989   C     0.48002   0.31047   0.71544   0.00000  Uiso   1.00
C990   C     0.35619   0.12771   0.76491   0.00000  Uiso   1.00
Cu991  Cu    0.50000   0.21355   0.75000   0.00000  Uiso   1.00
Cu992  Cu    0.50000   0.11978   0.75000   0.00000  Uiso   1.00
F993   F     0.37756   0.09129   0.78479   0.00000  Uiso   1.00
F994   F     0.62185   0.23967   0.70915   0.00000  Uiso   1.00
F995   F     0.62962   0.08511   0.76967   0.00000  Uiso   1.00
F996   F     0.37099   0.24328   0.71743   0.00000  Uiso   1.00
H997   H     0.54862   0.13598   0.52904   0.00000  Uiso   1.00
H998   H     0.34967   0.08226   0.66331   0.00000  Uiso   1.00
H999   H     0.37182   0.09791   0.58682   0.00000  Uiso   1.00
H1000  H     0.44379   0.08109   0.57026   0.00000  Uiso   1.00
H1001  H     0.49431   0.05221   0.63034   0.00000  Uiso   1.00
H1002  H     0.54143   0.25862   0.86099   0.00000  Uiso   1.00
H1003  H     0.60886   0.23154   0.89399   0.00000  Uiso   1.00
H1004  H     0.33854   0.24975   0.85562   0.00000  Uiso   1.00
H1005  H     0.66639   0.29476   0.78362   0.00000  Uiso   1.00
H1006  H     0.59831   0.31876   0.74846   0.00000  Uiso   1.00
H1007  H     0.57932   0.08191   0.81662   0.00000  Uiso   1.00
H1008  H     0.48184   0.09079   0.97090   0.00000  Uiso   1.00
H1009  H     0.60490   0.09063   0.89477   0.00000  Uiso   1.00
H1010  H     0.57182   0.04870   0.95563   0.00000  Uiso   1.00
H1011  H     0.51156   0.33314   0.93730   0.00000  Uiso   1.00
H1012  H     0.48447   0.32617   0.85886   0.00000  Uiso   1.00
H1013  H     0.53262   0.29315   0.65286   0.00000  Uiso   1.00
H1014  H     0.51497   0.28644   0.57179   0.00000  Uiso   1.00
H1015  H     0.44192   0.28546   0.54224   0.00000  Uiso   1.00
H1016  H     0.38643   0.28775   0.59450   0.00000  Uiso   1.00
H1017  H     0.40377   0.29627   0.67502   0.00000  Uiso   1.00
H1018  H     0.48063   0.23862   0.96813   0.00000  Uiso   1.00
H1019  H     0.42528   0.19135   0.52964   0.00000  Uiso   1.00
H1020  H     0.55666   0.13885   0.61136   0.00000  Uiso   1.00
H1021  H     0.48261   0.09289   0.88890   0.00000  Uiso   1.00
H1022  H     0.48302   0.23994   0.88683   0.00000  Uiso   1.00
H1023  H     0.43293   0.19233   0.61211   0.00000  Uiso   1.00
H1024  H     0.39907   0.04892   0.72249   0.00000  Uiso   1.00
N1025  N     0.50000   0.28402   0.75000   0.00000  Uiso   1.00
N1026  N     0.50000   0.04931   0.75000   0.00000  Uiso   1.00
O1027  O     0.43988   0.20625   0.74999   0.00000  Uiso   1.00
O1028  O     0.56012   0.12709   0.75000   0.00000  Uiso   1.00
O1029  O     0.56012   0.20625   0.75000   0.00000  Uiso   1.00
O1030  O     0.43988   0.12709   0.74999   0.00000  Uiso   1.00
O1031  O     0.50000   0.20626   0.68573   0.00000  Uiso   1.00
O1032  O     0.50000   0.12707   0.81427   0.00000  Uiso   1.00
O1033  O     0.50000   0.20626   0.81427   0.00000  Uiso   1.00
O1034  O     0.50000   0.12707   0.68573   0.00000  Uiso   1.00
C1035  C     0.75425   0.16688   0.75025   0.00000  Uiso   1.00
C1036  C     0.97686   0.20377   0.72957   0.00000  Uiso   1.00
C1037  C     0.98039   0.12589   0.76065   0.00000  Uiso   1.00
C1038  C     0.68615   0.20496   0.73228   0.00000  Uiso   1.00
C1039  C     0.85675   0.14870   0.54706   0.00000  Uiso   1.00
C1040  C     0.81617   0.12343   0.95261   0.00000  Uiso   1.00
C1041  C     0.81531   0.20653   0.95103   0.00000  Uiso   1.00
C1042  C     0.78737   0.18009   0.54733   0.00000  Uiso   1.00
C1043  C     0.86146   0.15068   0.59354   0.00000  Uiso   1.00
C1044  C     0.81795   0.12438   0.90629   0.00000  Uiso   1.00
C1045  C     0.81788   0.20717   0.90482   0.00000  Uiso   1.00
C1046  C     0.91235   0.16628   0.74848   0.00000  Uiso   1.00
C1047  C     0.79193   0.18136   0.59387   0.00000  Uiso   1.00
C1048  C     0.82931   0.16792   0.61678   0.00000  Uiso   1.00
C1049  C     0.82241   0.16589   0.88255   0.00000  Uiso   1.00
C1050  C     0.81988   0.16396   0.52391   0.00000  Uiso   1.00
C1051  C     0.81629   0.16459   0.97516   0.00000  Uiso   1.00
C1052  C     0.95695   0.16513   0.74598   0.00000  Uiso   1.00
C1053  C     0.70950   0.16698   0.74997   0.00000  Uiso   1.00
C1054  C     0.78437   0.05159   0.68197   0.00000  Uiso   1.00
C1055  C     0.74299   0.05872   0.69024   0.00000  Uiso   1.00
C1056  C     0.71475   0.07638   0.65638   0.00000  Uiso   1.00
C1057  C     0.83286   0.16722   0.66522   0.00000  Uiso   1.00
C1058  C     0.72715   0.08490   0.61323   0.00000  Uiso   1.00
C1059  C     0.76774   0.07565   0.60395   0.00000  Uiso   1.00
C1060  C     0.79632   0.05935   0.63810   0.00000  Uiso   1.00
C1061  C     0.89742   0.28713   0.80031   0.00000  Uiso   1.00
C1062  C     0.90119   0.26403   0.84234   0.00000  Uiso   1.00
C1063  C     0.93978   0.24977   0.86177   0.00000  Uiso   1.00
C1064  C     0.97528   0.26033   0.84035   0.00000  Uiso   1.00
C1065  C     0.97218   0.28555   0.79974   0.00000  Uiso   1.00
C1066  C     0.93350   0.29876   0.77975   0.00000  Uiso   1.00
C1067  C     0.86278   0.03781   0.83104   0.00000  Uiso   1.00
C1068  C     0.83017   0.16626   0.83468   0.00000  Uiso   1.00
C1069  C     0.89708   0.06479   0.84215   0.00000  Uiso   1.00
C1070  C     0.91185   0.06938   0.88683   0.00000  Uiso   1.00
C1071  C     0.89332   0.04567   0.92112   0.00000  Uiso   1.00
C1072  C     0.85932   0.01828   0.91081   0.00000  Uiso   1.00
C1073  C     0.84369   0.01502   0.86623   0.00000  Uiso   1.00
C1074  C     0.80275   0.29139   0.67084   0.00000  Uiso   1.00
C1075  C     0.83400   0.28979   0.64074   0.00000  Uiso   1.00
C1076  C     0.82409   0.28705   0.59466   0.00000  Uiso   1.00
C1077  C     0.78292   0.28663   0.57799   0.00000  Uiso   1.00
C1078  C     0.75166   0.28734   0.60749   0.00000  Uiso   1.00
C1079  C     0.81212   0.02638   0.71637   0.00000  Uiso   1.00
C1080  C     0.76150   0.28989   0.65361   0.00000  Uiso   1.00
C1081  C     0.85772   0.30728   0.78059   0.00000  Uiso   1.00
C1082  C     0.85284   0.02221   0.78457   0.00000  Uiso   1.00
C1083  C     0.81336   0.31047   0.71544   0.00000  Uiso   1.00
C1084  C     0.68953   0.12771   0.76491   0.00000  Uiso   1.00
Cu1085 Cu    0.83333   0.21355   0.75000   0.00000  Uiso   1.00
Cu1086 Cu    0.83333   0.11978   0.75000   0.00000  Uiso   1.00
F1087  F     0.71089   0.09129   0.78479   0.00000  Uiso   1.00
F1088  F     0.95519   0.23967   0.70915   0.00000  Uiso   1.00
F1089  F     0.96295   0.08511   0.76967   0.00000  Uiso   1.00
F1090  F     0.70433   0.24328   0.71743   0.00000  Uiso   1.00
H1091  H     0.88195   0.13598   0.52904   0.00000  Uiso   1.00
H1092  H     0.68301   0.08226   0.66331   0.00000  Uiso   1.00
H1093  H     0.70516   0.09791   0.58682   0.00000  Uiso   1.00
H1094  H     0.77712   0.08109   0.57026   0.00000  Uiso   1.00
H1095  H     0.82764   0.05221   0.63034   0.00000  Uiso   1.00
H1096  H     0.87477   0.25862   0.86099   0.00000  Uiso   1.00
H1097  H     0.94220   0.23154   0.89399   0.00000  Uiso   1.00
H1098  H     0.67187   0.24975   0.85562   0.00000  Uiso   1.00
H1099  H     0.99973   0.29476   0.78362   0.00000  Uiso   1.00
H1100  H     0.93164   0.31876   0.74846   0.00000  Uiso   1.00
H1101  H     0.91265   0.08191   0.81662   0.00000  Uiso   1.00
H1102  H     0.81517   0.09079   0.97090   0.00000  Uiso   1.00
H1103  H     0.93823   0.09063   0.89477   0.00000  Uiso   1.00
H1104  H     0.90515   0.04870   0.95563   0.00000  Uiso   1.00
H1105  H     0.84490   0.33314   0.93730   0.00000  Uiso   1.00
H1106  H     0.81780   0.32617   0.85886   0.00000  Uiso   1.00
H1107  H     0.86596   0.29315   0.65286   0.00000  Uiso   1.00
H1108  H     0.84830   0.28644   0.57179   0.00000  Uiso   1.00
H1109  H     0.77525   0.28546   0.54224   0.00000  Uiso   1.00
H1110  H     0.71977   0.28775   0.59450   0.00000  Uiso   1.00
H1111  H     0.73710   0.29627   0.67502   0.00000  Uiso   1.00
H1112  H     0.81396   0.23862   0.96813   0.00000  Uiso   1.00
H1113  H     0.75861   0.19135   0.52964   0.00000  Uiso   1.00
H1114  H     0.89000   0.13885   0.61136   0.00000  Uiso   1.00
H1115  H     0.81594   0.09289   0.88890   0.00000  Uiso   1.00
H1116  H     0.81635   0.23994   0.88683   0.00000  Uiso   1.00
H1117  H     0.76626   0.19233   0.61211   0.00000  Uiso   1.00
H1118  H     0.73240   0.04892   0.72249   0.00000  Uiso   1.00
N1119  N     0.83333   0.28402   0.75000   0.00000  Uiso   1.00
N1120  N     0.83333   0.04931   0.75000   0.00000  Uiso   1.00
O1121  O     0.77321   0.20625   0.74999   0.00000  Uiso   1.00
O1122  O     0.89345   0.12709   0.75000   0.00000  Uiso   1.00
O1123  O     0.89345   0.20625   0.75000   0.00000  Uiso   1.00
O1124  O     0.77321   0.12709   0.74999   0.00000  Uiso   1.00
O1125  O     0.83333   0.20626   0.68573   0.00000  Uiso   1.00
O1126  O     0.83334   0.12707   0.81427   0.00000  Uiso   1.00
O1127  O     0.83334   0.20626   0.81427   0.00000  Uiso   1.00
O1128  O     0.83333   0.12707   0.68573   0.00000  Uiso   1.00
C1129  C     0.08758   0.50021   0.75025   0.00000  Uiso   1.00
C1130  C     0.31020   0.53711   0.72957   0.00000  Uiso   1.00
C1131  C     0.31373   0.45923   0.76065   0.00000  Uiso   1.00
C1132  C     0.01948   0.53829   0.73228   0.00000  Uiso   1.00
C1133  C     0.19009   0.48203   0.54706   0.00000  Uiso   1.00
C1134  C     0.14950   0.45676   0.95261   0.00000  Uiso   1.00
C1135  C     0.14865   0.53986   0.95103   0.00000  Uiso   1.00
C1136  C     0.12071   0.51342   0.54733   0.00000  Uiso   1.00
C1137  C     0.19480   0.48401   0.59354   0.00000  Uiso   1.00
C1138  C     0.15129   0.45771   0.90629   0.00000  Uiso   1.00
C1139  C     0.15121   0.54050   0.90482   0.00000  Uiso   1.00
C1140  C     0.24568   0.49961   0.74848   0.00000  Uiso   1.00
C1141  C     0.12526   0.51470   0.59387   0.00000  Uiso   1.00
C1142  C     0.16264   0.50126   0.61678   0.00000  Uiso   1.00
C1143  C     0.15574   0.49922   0.88255   0.00000  Uiso   1.00
C1144  C     0.15322   0.49729   0.52391   0.00000  Uiso   1.00
C1145  C     0.14963   0.49792   0.97516   0.00000  Uiso   1.00
C1146  C     0.29028   0.49846   0.74598   0.00000  Uiso   1.00
C1147  C     0.04283   0.50031   0.74997   0.00000  Uiso   1.00
C1148  C     0.11771   0.38493   0.68197   0.00000  Uiso   1.00
C1149  C     0.07632   0.39205   0.69024   0.00000  Uiso   1.00
C1150  C     0.04808   0.40971   0.65638   0.00000  Uiso   1.00
C1151  C     0.16620   0.50056   0.66522   0.00000  Uiso   1.00
C1152  C     0.06048   0.41824   0.61323   0.00000  Uiso   1.00
C1153  C     0.10108   0.40898   0.60395   0.00000  Uiso   1.00
C1154  C     0.12965   0.39268   0.63810   0.00000  Uiso   1.00
C1155  C     0.23075   0.62047   0.80031   0.00000  Uiso   1.00
C1156  C     0.23452   0.59736   0.84234   0.00000  Uiso   1.00
C1157  C     0.27311   0.58311   0.86177   0.00000  Uiso   1.00
C1158  C     0.30861   0.59366   0.84035   0.00000  Uiso   1.00
C1159  C     0.30551   0.61888   0.79974   0.00000  Uiso   1.00
C1160  C     0.26683   0.63210   0.77975   0.00000  Uiso   1.00
C1161  C     0.19611   0.37114   0.83104   0.00000  Uiso   1.00
C1162  C     0.16351   0.49959   0.83468   0.00000  Uiso   1.00
C1163  C     0.23041   0.39813   0.84215   0.00000  Uiso   1.00
C1164  C     0.24518   0.40272   0.88683   0.00000  Uiso   1.00
C1165  C     0.22666   0.37900   0.92112   0.00000  Uiso   1.00
C1166  C     0.19265   0.35162   0.91081   0.00000  Uiso   1.00
C1167  C     0.17703   0.34835   0.86623   0.00000  Uiso   1.00
C1168  C     0.13608   0.62472   0.67084   0.00000  Uiso   1.00
C1169  C     0.16734   0.62312   0.64074   0.00000  Uiso   1.00
C1170  C     0.15743   0.62038   0.59466   0.00000  Uiso   1.00
C1171  C     0.11625   0.61997   0.57799   0.00000  Uiso   1.00
C1172  C     0.08500   0.62068   0.60749   0.00000  Uiso   1.00
C1173  C     0.14545   0.35972   0.71637   0.00000  Uiso   1.00
C1174  C     0.09484   0.62322   0.65361   0.00000  Uiso   1.00
C1175  C     0.19105   0.64061   0.78059   0.00000  Uiso   1.00
C1176  C     0.18617   0.35554   0.78457   0.00000  Uiso   1.00
C1177  C     0.14669   0.64380   0.71544   0.00000  Uiso   1.00
C1178  C     0.02286   0.46105   0.76491   0.00000  Uiso   1.00
Cu1179 Cu    0.16667   0.54689   0.75000   0.00000  Uiso   1.00
Cu1180 Cu    0.16667   0.45311   0.75000   0.00000  Uiso   1.00
F1181  F     0.04422   0.42463   0.78479   0.00000  Uiso   1.00
F1182  F     0.28852   0.57301   0.70915   0.00000  Uiso   1.00
F1183  F     0.29628   0.41844   0.76967   0.00000  Uiso   1.00
F1184  F     0.03766   0.57661   0.71743   0.00000  Uiso   1.00
H1185  H     0.21528   0.46931   0.52904   0.00000  Uiso   1.00
H1186  H     0.01634   0.41559   0.66331   0.00000  Uiso   1.00
H1187  H     0.03849   0.43124   0.58682   0.00000  Uiso   1.00
H1188  H     0.11045   0.41442   0.57026   0.00000  Uiso   1.00
H1189  H     0.16098   0.38554   0.63034   0.00000  Uiso   1.00
H1190  H     0.20810   0.59195   0.86099   0.00000  Uiso   1.00
H1191  H     0.27553   0.56487   0.89399   0.00000  Uiso   1.00
H1192  H     0.00520   0.58309   0.85562   0.00000  Uiso   1.00
H1193  H     0.33306   0.62809   0.78362   0.00000  Uiso   1.00
H1194  H     0.26497   0.65210   0.74846   0.00000  Uiso   1.00
H1195  H     0.24598   0.41524   0.81662   0.00000  Uiso   1.00
H1196  H     0.14851   0.42412   0.97090   0.00000  Uiso   1.00
H1197  H     0.27156   0.42396   0.89477   0.00000  Uiso   1.00
H1198  H     0.23849   0.38204   0.95563   0.00000  Uiso   1.00
H1199  H     0.17823   0.66647   0.93730   0.00000  Uiso   1.00
H1200  H     0.15114   0.65951   0.85886   0.00000  Uiso   1.00
H1201  H     0.19929   0.62648   0.65286   0.00000  Uiso   1.00
H1202  H     0.18163   0.61978   0.57179   0.00000  Uiso   1.00
H1203  H     0.10858   0.61879   0.54224   0.00000  Uiso   1.00
H1204  H     0.05310   0.62109   0.59450   0.00000  Uiso   1.00
H1205  H     0.07044   0.62961   0.67502   0.00000  Uiso   1.00
H1206  H     0.14730   0.57195   0.96813   0.00000  Uiso   1.00
H1207  H     0.09195   0.52469   0.52964   0.00000  Uiso   1.00
H1208  H     0.22333   0.47218   0.61136   0.00000  Uiso   1.00
H1209  H     0.14927   0.42623   0.88890   0.00000  Uiso   1.00
H1210  H     0.14969   0.57328   0.88683   0.00000  Uiso   1.00
H1211  H     0.09960   0.52566   0.61211   0.00000  Uiso   1.00
H1212  H     0.06574   0.38225   0.72249   0.00000  Uiso   1.00
N1213  N     0.16667   0.61736   0.75000   0.00000  Uiso   1.00
N1214  N     0.16667   0.38264   0.75000   0.00000  Uiso   1.00
O1215  O     0.10655   0.53958   0.74999   0.00000  Uiso   1.00
O1216  O     0.22679   0.46042   0.75000   0.00000  Uiso   1.00
O1217  O     0.22679   0.53958   0.75000   0.00000  Uiso   1.00
O1218  O     0.10655   0.46042   0.74999   0.00000  Uiso   1.00
O1219  O     0.16666   0.53959   0.68573   0.00000  Uiso   1.00
O1220  O     0.16667   0.46041   0.81427   0.00000  Uiso   1.00
O1221  O     0.16667   0.53959   0.81427   0.00000  Uiso   1.00
O1222  O     0.16666   0.46041   0.68573   0.00000  Uiso   1.00
C1223  C     0.42091   0.50021   0.75025   0.00000  Uiso   1.00
C1224  C     0.64353   0.53711   0.72957   0.00000  Uiso   1.00
C1225  C     0.64706   0.45923   0.76065   0.00000  Uiso   1.00
C1226  C     0.35281   0.53829   0.73228   0.00000  Uiso   1.00
C1227  C     0.52342   0.48203   0.54706   0.00000  Uiso   1.00
C1228  C     0.48284   0.45676   0.95261   0.00000  Uiso   1.00
C1229  C     0.48198   0.53986   0.95103   0.00000  Uiso   1.00
C1230  C     0.45404   0.51342   0.54733   0.00000  Uiso   1.00
C1231  C     0.52813   0.48401   0.59354   0.00000  Uiso   1.00
C1232  C     0.48462   0.45771   0.90629   0.00000  Uiso   1.00
C1233  C     0.48454   0.54050   0.90482   0.00000  Uiso   1.00
C1234  C     0.57901   0.49961   0.74848   0.00000  Uiso   1.00
C1235  C     0.45859   0.51470   0.59387   0.00000  Uiso   1.00
C1236  C     0.49597   0.50126   0.61678   0.00000  Uiso   1.00
C1237  C     0.48907   0.49922   0.88255   0.00000  Uiso   1.00
C1238  C     0.48655   0.49729   0.52391   0.00000  Uiso   1.00
C1239  C     0.48296   0.49792   0.97516   0.00000  Uiso   1.00
C1240  C     0.62361   0.49846   0.74598   0.00000  Uiso   1.00
C1241  C     0.37617   0.50031   0.74997   0.00000  Uiso   1.00
C1242  C     0.45104   0.38493   0.68197   0.00000  Uiso   1.00
C1243  C     0.40965   0.39205   0.69024   0.00000  Uiso   1.00
C1244  C     0.38141   0.40971   0.65638   0.00000  Uiso   1.00
C1245  C     0.49953   0.50056   0.66522   0.00000  Uiso   1.00
C1246  C     0.39381   0.41824   0.61323   0.00000  Uiso   1.00
C1247  C     0.43441   0.40898   0.60395   0.00000  Uiso   1.00
C1248  C     0.46299   0.39268   0.63810   0.00000  Uiso   1.00
C1249  C     0.56409   0.62047   0.80031   0.00000  Uiso   1.00
C1250  C     0.56786   0.59736   0.84234   0.00000  Uiso   1.00
C1251  C     0.60644   0.58311   0.86177   0.00000  Uiso   1.00
C1252  C     0.64195   0.59366   0.84035   0.00000  Uiso   1.00
C1253  C     0.63884   0.61888   0.79974   0.00000  Uiso   1.00
C1254  C     0.60016   0.63210   0.77975   0.00000  Uiso   1.00
C1255  C     0.52944   0.37114   0.83104   0.00000  Uiso   1.00
C1256  C     0.49684   0.49959   0.83468   0.00000  Uiso   1.00
C1257  C     0.56375   0.39813   0.84215   0.00000  Uiso   1.00
C1258  C     0.57851   0.40272   0.88683   0.00000  Uiso   1.00
C1259  C     0.55999   0.37900   0.92112   0.00000  Uiso   1.00
C1260  C     0.52599   0.35162   0.91081   0.00000  Uiso   1.00
C1261  C     0.51036   0.34835   0.86623   0.00000  Uiso   1.00
C1262  C     0.46942   0.62472   0.67084   0.00000  Uiso   1.00
C1263  C     0.50067   0.62312   0.64074   0.00000  Uiso   1.00
C1264  C     0.49076   0.62038   0.59466   0.00000  Uiso   1.00
C1265  C     0.44959   0.61997   0.57799   0.00000  Uiso   1.00
C1266  C     0.41833   0.62068   0.60749   0.00000  Uiso   1.00
C1267  C     0.47878   0.35972   0.71637   0.00000  Uiso   1.00
C1268  C     0.42817   0.62322   0.65361   0.00000  Uiso   1.00
C1269  C     0.52438   0.64061   0.78059   0.00000  Uiso   1.00
C1270  C     0.51951   0.35554   0.78457   0.00000  Uiso   1.00
C1271  C     0.48002   0.64380   0.71544   0.00000  Uiso   1.00
C1272  C     0.35619   0.46105   0.76491   0.00000  Uiso   1.00
Cu1273 Cu    0.50000   0.54689   0.75000   0.00000  Uiso   1.00
Cu1274 Cu    0.50000   0.45311   0.75000   0.00000  Uiso   1.00
F1275  F     0.37756   0.42463   0.78479   0.00000  Uiso   1.00
F1276  F     0.62185   0.57301   0.70915   0.00000  Uiso   1.00
F1277  F     0.62962   0.41844   0.76967   0.00000  Uiso   1.00
F1278  F     0.37099   0.57661   0.71743   0.00000  Uiso   1.00
H1279  H     0.54862   0.46931   0.52904   0.00000  Uiso   1.00
H1280  H     0.34967   0.41559   0.66331   0.00000  Uiso   1.00
H1281  H     0.37182   0.43124   0.58682   0.00000  Uiso   1.00
H1282  H     0.44379   0.41442   0.57026   0.00000  Uiso   1.00
H1283  H     0.49431   0.38554   0.63034   0.00000  Uiso   1.00
H1284  H     0.54143   0.59195   0.86099   0.00000  Uiso   1.00
H1285  H     0.60886   0.56487   0.89399   0.00000  Uiso   1.00
H1286  H     0.33854   0.58309   0.85562   0.00000  Uiso   1.00
H1287  H     0.66639   0.62809   0.78362   0.00000  Uiso   1.00
H1288  H     0.59831   0.65210   0.74846   0.00000  Uiso   1.00
H1289  H     0.57932   0.41524   0.81662   0.00000  Uiso   1.00
H1290  H     0.48184   0.42412   0.97090   0.00000  Uiso   1.00
H1291  H     0.60490   0.42396   0.89477   0.00000  Uiso   1.00
H1292  H     0.57182   0.38204   0.95563   0.00000  Uiso   1.00
H1293  H     0.51156   0.66647   0.93730   0.00000  Uiso   1.00
H1294  H     0.48447   0.65951   0.85886   0.00000  Uiso   1.00
H1295  H     0.53262   0.62648   0.65286   0.00000  Uiso   1.00
H1296  H     0.51497   0.61978   0.57179   0.00000  Uiso   1.00
H1297  H     0.44192   0.61879   0.54224   0.00000  Uiso   1.00
H1298  H     0.38643   0.62109   0.59450   0.00000  Uiso   1.00
H1299  H     0.40377   0.62961   0.67502   0.00000  Uiso   1.00
H1300  H     0.48063   0.57195   0.96813   0.00000  Uiso   1.00
H1301  H     0.42528   0.52469   0.52964   0.00000  Uiso   1.00
H1302  H     0.55666   0.47218   0.61136   0.00000  Uiso   1.00
H1303  H     0.48261   0.42623   0.88890   0.00000  Uiso   1.00
H1304  H     0.48302   0.57328   0.88683   0.00000  Uiso   1.00
H1305  H     0.43293   0.52566   0.61211   0.00000  Uiso   1.00
H1306  H     0.39907   0.38225   0.72249   0.00000  Uiso   1.00
N1307  N     0.50000   0.61736   0.75000   0.00000  Uiso   1.00
N1308  N     0.50000   0.38264   0.75000   0.00000  Uiso   1.00
O1309  O     0.43988   0.53958   0.74999   0.00000  Uiso   1.00
O1310  O     0.56012   0.46042   0.75000   0.00000  Uiso   1.00
O1311  O     0.56012   0.53958   0.75000   0.00000  Uiso   1.00
O1312  O     0.43988   0.46042   0.74999   0.00000  Uiso   1.00
O1313  O     0.50000   0.53959   0.68573   0.00000  Uiso   1.00
O1314  O     0.50000   0.46041   0.81427   0.00000  Uiso   1.00
O1315  O     0.50000   0.53959   0.81427   0.00000  Uiso   1.00
O1316  O     0.50000   0.46041   0.68573   0.00000  Uiso   1.00
C1317  C     0.75425   0.50021   0.75025   0.00000  Uiso   1.00
C1318  C     0.97686   0.53711   0.72957   0.00000  Uiso   1.00
C1319  C     0.98039   0.45923   0.76065   0.00000  Uiso   1.00
C1320  C     0.68615   0.53829   0.73228   0.00000  Uiso   1.00
C1321  C     0.85675   0.48203   0.54706   0.00000  Uiso   1.00
C1322  C     0.81617   0.45676   0.95261   0.00000  Uiso   1.00
C1323  C     0.81531   0.53986   0.95103   0.00000  Uiso   1.00
C1324  C     0.78737   0.51342   0.54733   0.00000  Uiso   1.00
C1325  C     0.86146   0.48401   0.59354   0.00000  Uiso   1.00
C1326  C     0.81795   0.45771   0.90629   0.00000  Uiso   1.00
C1327  C     0.81788   0.54050   0.90482   0.00000  Uiso   1.00
C1328  C     0.91235   0.49961   0.74848   0.00000  Uiso   1.00
C1329  C     0.79193   0.51470   0.59387   0.00000  Uiso   1.00
C1330  C     0.82931   0.50126   0.61678   0.00000  Uiso   1.00
C1331  C     0.82241   0.49922   0.88255   0.00000  Uiso   1.00
C1332  C     0.81988   0.49729   0.52391   0.00000  Uiso   1.00
C1333  C     0.81629   0.49792   0.97516   0.00000  Uiso   1.00
C1334  C     0.95695   0.49846   0.74598   0.00000  Uiso   1.00
C1335  C     0.70950   0.50031   0.74997   0.00000  Uiso   1.00
C1336  C     0.78437   0.38493   0.68197   0.00000  Uiso   1.00
C1337  C     0.74299   0.39205   0.69024   0.00000  Uiso   1.00
C1338  C     0.71475   0.40971   0.65638   0.00000  Uiso   1.00
C1339  C     0.83286   0.50056   0.66522   0.00000  Uiso   1.00
C1340  C     0.72715   0.41824   0.61323   0.00000  Uiso   1.00
C1341  C     0.76774   0.40898   0.60395   0.00000  Uiso   1.00
C1342  C     0.79632   0.39268   0.63810   0.00000  Uiso   1.00
C1343  C     0.89742   0.62047   0.80031   0.00000  Uiso   1.00
C1344  C     0.90119   0.59736   0.84234   0.00000  Uiso   1.00
C1345  C     0.93978   0.58311   0.86177   0.00000  Uiso   1.00
C1346  C     0.97528   0.59366   0.84035   0.00000  Uiso   1.00
C1347  C     0.97218   0.61888   0.79974   0.00000  Uiso   1.00
C1348  C     0.93350   0.63210   0.77975   0.00000  Uiso   1.00
C1349  C     0.86278   0.37114   0.83104   0.00000  Uiso   1.00
C1350  C     0.83017   0.49959   0.83468   0.00000  Uiso   1.00
C1351  C     0.89708   0.39813   0.84215   0.00000  Uiso   1.00
C1352  C     0.91185   0.40272   0.88683   0.00000  Uiso   1.00
C1353  C     0.89332   0.37900   0.92112   0.00000  Uiso   1.00
C1354  C     0.85932   0.35162   0.91081   0.00000  Uiso   1.00
C1355  C     0.84369   0.34835   0.86623   0.00000  Uiso   1.00
C1356  C     0.80275   0.62472   0.67084   0.00000  Uiso   1.00
C1357  C     0.83400   0.62312   0.64074   0.00000  Uiso   1.00
C1358  C     0.82409   0.62038   0.59466   0.00000  Uiso   1.00
C1359  C     0.78292   0.61997   0.57799   0.00000  Uiso   1.00
C1360  C     0.75166   0.62068   0.60749   0.00000  Uiso   1.00
C1361  C     0.81212   0.35972   0.71637   0.00000  Uiso   1.00
C1362  C     0.76150   0.62322   0.65361   0.00000  Uiso   1.00
C1363  C     0.85772   0.64061   0.78059   0.00000  Uiso   1.00
C1364  C     0.85284   0.35554   0.78457   0.00000  Uiso   1.00
C1365  C     0.81336   0.64380   0.71544   0.00000  Uiso   1.00
C1366  C     0.68953   0.46105   0.76491   0.00000  Uiso   1.00
Cu1367 Cu    0.83333   0.54689   0.75000   0.00000  Uiso   1.00
Cu1368 Cu    0.83333   0.45311   0.75000   0.00000  Uiso   1.00
F1369  F     0.71089   0.42463   0.78479   0.00000  Uiso   1.00
F1370  F     0.95519   0.57301   0.70915   0.00000  Uiso   1.00
F1371  F     0.96295   0.41844   0.76967   0.00000  Uiso   1.00
F1372  F     0.70433   0.57661   0.71743   0.00000  Uiso   1.00
H1373  H     0.88195   0.46931   0.52904   0.00000  Uiso   1.00
H1374  H     0.68301   0.41559   0.66331   0.00000  Uiso   1.00
H1375  H     0.70516   0.43124   0.58682   0.00000  Uiso   1.00
H1376  H     0.77712   0.41442   0.57026   0.00000  Uiso   1.00
H1377  H     0.82764   0.38554   0.63034   0.00000  Uiso   1.00
H1378  H     0.87477   0.59195   0.86099   0.00000  Uiso   1.00
H1379  H     0.94220   0.56487   0.89399   0.00000  Uiso   1.00
H1380  H     0.67187   0.58309   0.85562   0.00000  Uiso   1.00
H1381  H     0.99973   0.62809   0.78362   0.00000  Uiso   1.00
H1382  H     0.93164   0.65210   0.74846   0.00000  Uiso   1.00
H1383  H     0.91265   0.41524   0.81662   0.00000  Uiso   1.00
H1384  H     0.81517   0.42412   0.97090   0.00000  Uiso   1.00
H1385  H     0.93823   0.42396   0.89477   0.00000  Uiso   1.00
H1386  H     0.90515   0.38204   0.95563   0.00000  Uiso   1.00
H1387  H     0.84490   0.66647   0.93730   0.00000  Uiso   1.00
H1388  H     0.81780   0.65951   0.85886   0.00000  Uiso   1.00
H1389  H     0.86596   0.62648   0.65286   0.00000  Uiso   1.00
H1390  H     0.84830   0.61978   0.57179   0.00000  Uiso   1.00
H1391  H     0.77525   0.61879   0.54224   0.00000  Uiso   1.00
H1392  H     0.71977   0.62109   0.59450   0.00000  Uiso   1.00
H1393  H     0.73710   0.62961   0.67502   0.00000  Uiso   1.00
H1394  H     0.81396   0.57195   0.96813   0.00000  Uiso   1.00
H1395  H     0.75861   0.52469   0.52964   0.00000  Uiso   1.00
H1396  H     0.89000   0.47218   0.61136   0.00000  Uiso   1.00
H1397  H     0.81594   0.42623   0.88890   0.00000  Uiso   1.00
H1398  H     0.81635   0.57328   0.88683   0.00000  Uiso   1.00
H1399  H     0.76626   0.52566   0.61211   0.00000  Uiso   1.00
H1400  H     0.73240   0.38225   0.72249   0.00000  Uiso   1.00
N1401  N     0.83333   0.61736   0.75000   0.00000  Uiso   1.00
N1402  N     0.83333   0.38264   0.75000   0.00000  Uiso   1.00
O1403  O     0.77321   0.53958   0.74999   0.00000  Uiso   1.00
O1404  O     0.89345   0.46042   0.75000   0.00000  Uiso   1.00
O1405  O     0.89345   0.53958   0.75000   0.00000  Uiso   1.00
O1406  O     0.77321   0.46042   0.74999   0.00000  Uiso   1.00
O1407  O     0.83333   0.53959   0.68573   0.00000  Uiso   1.00
O1408  O     0.83334   0.46041   0.81427   0.00000  Uiso   1.00
O1409  O     0.83334   0.53959   0.81427   0.00000  Uiso   1.00
O1410  O     0.83333   0.46041   0.68573   0.00000  Uiso   1.00
C1411  C     0.08758   0.83355   0.75025   0.00000  Uiso   1.00
C1412  C     0.31020   0.87044   0.72957   0.00000  Uiso   1.00
C1413  C     0.31373   0.79256   0.76065   0.00000  Uiso   1.00
C1414  C     0.01948   0.87162   0.73228   0.00000  Uiso   1.00
C1415  C     0.19009   0.81537   0.54706   0.00000  Uiso   1.00
C1416  C     0.14950   0.79010   0.95261   0.00000  Uiso   1.00
C1417  C     0.14865   0.87320   0.95103   0.00000  Uiso   1.00
C1418  C     0.12071   0.84675   0.54733   0.00000  Uiso   1.00
C1419  C     0.19480   0.81735   0.59354   0.00000  Uiso   1.00
C1420  C     0.15129   0.79104   0.90629   0.00000  Uiso   1.00
C1421  C     0.15121   0.87383   0.90482   0.00000  Uiso   1.00
C1422  C     0.24568   0.83295   0.74848   0.00000  Uiso   1.00
C1423  C     0.12526   0.84803   0.59387   0.00000  Uiso   1.00
C1424  C     0.16264   0.83459   0.61678   0.00000  Uiso   1.00
C1425  C     0.15574   0.83255   0.88255   0.00000  Uiso   1.00
C1426  C     0.15322   0.83063   0.52391   0.00000  Uiso   1.00
C1427  C     0.14963   0.83126   0.97516   0.00000  Uiso   1.00
C1428  C     0.29028   0.83180   0.74598   0.00000  Uiso   1.00
C1429  C     0.04283   0.83365   0.74997   0.00000  Uiso   1.00
C1430  C     0.11771   0.71826   0.68197   0.00000  Uiso   1.00
C1431  C     0.07632   0.72539   0.69024   0.00000  Uiso   1.00
C1432  C     0.04808   0.74305   0.65638   0.00000  Uiso   1.00
C1433  C     0.16620   0.83389   0.66522   0.00000  Uiso   1.00
C1434  C     0.06048   0.75157   0.61323   0.00000  Uiso   1.00
C1435  C     0.10108   0.74232   0.60395   0.00000  Uiso   1.00
C1436  C     0.12965   0.72602   0.63810   0.00000  Uiso   1.00
C1437  C     0.23075   0.95380   0.80031   0.00000  Uiso   1.00
C1438  C     0.23452   0.93070   0.84234   0.00000  Uiso   1.00
C1439  C     0.27311   0.91644   0.86177   0.00000  Uiso   1.00
C1440  C     0.30861   0.92700   0.84035   0.00000  Uiso   1.00
C1441  C     0.30551   0.95222   0.79974   0.00000  Uiso   1.00
C1442  C     0.26683   0.96543   0.77975   0.00000  Uiso   1.00
C1443  C     0.19611   0.70447   0.83104   0.00000  Uiso   1.00
C1444  C     0.16351   0.83292   0.83468   0.00000  Uiso   1.00
C1445  C     0.23041   0.73146   0.84215   0.00000  Uiso   1.00
C1446  C     0.24518   0.73605   0.88683   0.00000  Uiso   1.00
C1447  C     0.22666   0.71233   0.92112   0.00000  Uiso   1.00
C1448  C     0.19265   0.68495   0.91081   0.00000  Uiso   1.00
C1449  C     0.17703   0.68168   0.86623   0.00000  Uiso   1.00
C1450  C     0.13608   0.95806   0.67084   0.00000  Uiso   1.00
C1451  C     0.16734   0.95646   0.64074   0.00000  Uiso   1.00
C1452  C     0.15743   0.95371   0.59466   0.00000  Uiso   1.00
C1453  C     0.11625   0.95330   0.57799   0.00000  Uiso   1.00
C1454  C     0.08500   0.95401   0.60749   0.00000  Uiso   1.00
C1455  C     0.14545   0.69305   0.71637   0.00000  Uiso   1.00
C1456  C     0.09484   0.95656   0.65361   0.00000  Uiso   1.00
C1457  C     0.19105   0.97394   0.78059   0.00000  Uiso   1.00
C1458  C     0.18617   0.68887   0.78457   0.00000  Uiso   1.00
C1459  C     0.14669   0.97713   0.71544   0.00000  Uiso   1.00
C1460  C     0.02286   0.79438   0.76491   0.00000  Uiso   1.00
Cu1461 Cu    0.16667   0.88022   0.75000   0.00000  Uiso   1.00
Cu1462 Cu    0.16667   0.78645   0.75000   0.00000  Uiso   1.00
F1463  F     0.04422   0.75796   0.78479   0.00000  Uiso   1.00
F1464  F     0.28852   0.90634   0.70915   0.00000  Uiso   1.00
F1465  F     0.29628   0.75178   0.76967   0.00000  Uiso   1.00
F1466  F     0.03766   0.90994   0.71743   0.00000  Uiso   1.00
H1467  H     0.21528   0.80265   0.52904   0.00000  Uiso   1.00
H1468  H     0.01634   0.74893   0.66331   0.00000  Uiso   1.00
H1469  H     0.03849   0.76457   0.58682   0.00000  Uiso   1.00
H1470  H     0.11045   0.74775   0.57026   0.00000  Uiso   1.00
H1471  H     0.16098   0.71887   0.63034   0.00000  Uiso   1.00
H1472  H     0.20810   0.92528   0.86099   0.00000  Uiso   1.00
H1473  H     0.27553   0.89821   0.89399   0.00000  Uiso   1.00
H1474  H     0.00520   0.91642   0.85562   0.00000  Uiso   1.00
H1475  H     0.33306   0.96143   0.78362   0.00000  Uiso   1.00
H1476  H     0.26497   0.98543   0.74846   0.00000  Uiso   1.00
H1477  H     0.24598   0.74857   0.81662   0.00000  Uiso   1.00
H1478  H     0.14851   0.75746   0.97090   0.00000  Uiso   1.00
H1479  H     0.27156   0.75729   0.89477   0.00000  Uiso   1.00
H1480  H     0.23849   0.71537   0.95563   0.00000  Uiso   1.00
H1481  H     0.17823   0.99981   0.93730   0.00000  Uiso   1.00
H1482  H     0.15114   0.99284   0.85886   0.00000  Uiso   1.00
H1483  H     0.19929   0.95982   0.65286   0.00000  Uiso   1.00
H1484  H     0.18163   0.95311   0.57179   0.00000  Uiso   1.00
H1485  H     0.10858   0.95213   0.54224   0.00000  Uiso   1.00
H1486  H     0.05310   0.95442   0.59450   0.00000  Uiso   1.00
H1487  H     0.07044   0.96294   0.67502   0.00000  Uiso   1.00
H1488  H     0.14730   0.90529   0.96813   0.00000  Uiso   1.00
H1489  H     0.09195   0.85802   0.52964   0.00000  Uiso   1.00
H1490  H     0.22333   0.80552   0.61136   0.00000  Uiso   1.00
H1491  H     0.14927   0.75956   0.88890   0.00000  Uiso   1.00
H1492  H     0.14969   0.90661   0.88683   0.00000  Uiso   1.00
H1493  H     0.09960   0.85900   0.61211   0.00000  Uiso   1.00
H1494  H     0.06574   0.71559   0.72249   0.00000  Uiso   1.00
N1495  N     0.16667   0.95069   0.75000   0.00000  Uiso   1.00
N1496  N     0.16667   0.71598   0.75000   0.00000  Uiso   1.00
O1497  O     0.10655   0.87291   0.74999   0.00000  Uiso   1.00
O1498  O     0.22679   0.79375   0.75000   0.00000  Uiso   1.00
O1499  O     0.22679   0.87291   0.75000   0.00000  Uiso   1.00
O1500  O     0.10655   0.79375   0.74999   0.00000  Uiso   1.00
O1501  O     0.16666   0.87293   0.68573   0.00000  Uiso   1.00
O1502  O     0.16667   0.79374   0.81427   0.00000  Uiso   1.00
O1503  O     0.16667   0.87293   0.81427   0.00000  Uiso   1.00
O1504  O     0.16666   0.79374   0.68573   0.00000  Uiso   1.00
C1505  C     0.42091   0.83355   0.75025   0.00000  Uiso   1.00
C1506  C     0.64353   0.87044   0.72957   0.00000  Uiso   1.00
C1507  C     0.64706   0.79256   0.76065   0.00000  Uiso   1.00
C1508  C     0.35281   0.87162   0.73228   0.00000  Uiso   1.00
C1509  C     0.52342   0.81537   0.54706   0.00000  Uiso   1.00
C1510  C     0.48284   0.79010   0.95261   0.00000  Uiso   1.00
C1511  C     0.48198   0.87320   0.95103   0.00000  Uiso   1.00
C1512  C     0.45404   0.84675   0.54733   0.00000  Uiso   1.00
C1513  C     0.52813   0.81735   0.59354   0.00000  Uiso   1.00
C1514  C     0.48462   0.79104   0.90629   0.00000  Uiso   1.00
C1515  C     0.48454   0.87383   0.90482   0.00000  Uiso   1.00
C1516  C     0.57901   0.83295   0.74848   0.00000  Uiso   1.00
C1517  C     0.45859   0.84803   0.59387   0.00000  Uiso   1.00
C1518  C     0.49597   0.83459   0.61678   0.00000  Uiso   1.00
C1519  C     0.48907   0.83255   0.88255   0.00000  Uiso   1.00
C1520  C     0.48655   0.83063   0.52391   0.00000  Uiso   1.00
C1521  C     0.48296   0.83126   0.97516   0.00000  Uiso   1.00
C1522  C     0.62361   0.83180   0.74598   0.00000  Uiso   1.00
C1523  C     0.37617   0.83365   0.74997   0.00000  Uiso   1.00
C1524  C     0.45104   0.71826   0.68197   0.00000  Uiso   1.00
C1525  C     0.40965   0.72539   0.69024   0.00000  Uiso   1.00
C1526  C     0.38141   0.74305   0.65638   0.00000  Uiso   1.00
C1527  C     0.49953   0.83389   0.66522   0.00000  Uiso   1.00
C1528  C     0.39381   0.75157   0.61323   0.00000  Uiso   1.00
C1529  C     0.43441   0.74232   0.60395   0.00000  Uiso   1.00
C1530  C     0.46299   0.72602   0.63810   0.00000  Uiso   1.00
C1531  C     0.56409   0.95380   0.80031   0.00000  Uiso   1.00
C1532  C     0.56786   0.93070   0.84234   0.00000  Uiso   1.00
C1533  C     0.60644   0.91644   0.86177   0.00000  Uiso   1.00
C1534  C     0.64195   0.92700   0.84035   0.00000  Uiso   1.00
C1535  C     0.63884   0.95222   0.79974   0.00000  Uiso   1.00
C1536  C     0.60016   0.96543   0.77975   0.00000  Uiso   1.00
C1537  C     0.52944   0.70447   0.83104   0.00000  Uiso   1.00
C1538  C     0.49684   0.83292   0.83468   0.00000  Uiso   1.00
C1539  C     0.56375   0.73146   0.84215   0.00000  Uiso   1.00
C1540  C     0.57851   0.73605   0.88683   0.00000  Uiso   1.00
C1541  C     0.55999   0.71233   0.92112   0.00000  Uiso   1.00
C1542  C     0.52599   0.68495   0.91081   0.00000  Uiso   1.00
C1543  C     0.51036   0.68168   0.86623   0.00000  Uiso   1.00
C1544  C     0.46942   0.95806   0.67084   0.00000  Uiso   1.00
C1545  C     0.50067   0.95646   0.64074   0.00000  Uiso   1.00
C1546  C     0.49076   0.95371   0.59466   0.00000  Uiso   1.00
C1547  C     0.44959   0.95330   0.57799   0.00000  Uiso   1.00
C1548  C     0.41833   0.95401   0.60749   0.00000  Uiso   1.00
C1549  C     0.47878   0.69305   0.71637   0.00000  Uiso   1.00
C1550  C     0.42817   0.95656   0.65361   0.00000  Uiso   1.00
C1551  C     0.52438   0.97394   0.78059   0.00000  Uiso   1.00
C1552  C     0.51951   0.68887   0.78457   0.00000  Uiso   1.00
C1553  C     0.48002   0.97713   0.71544   0.00000  Uiso   1.00
C1554  C     0.35619   0.79438   0.76491   0.00000  Uiso   1.00
Cu1555 Cu    0.50000   0.88022   0.75000   0.00000  Uiso   1.00
Cu1556 Cu    0.50000   0.78645   0.75000   0.00000  Uiso   1.00
F1557  F     0.37756   0.75796   0.78479   0.00000  Uiso   1.00
F1558  F     0.62185   0.90634   0.70915   0.00000  Uiso   1.00
F1559  F     0.62962   0.75178   0.76967   0.00000  Uiso   1.00
F1560  F     0.37099   0.90994   0.71743   0.00000  Uiso   1.00
H1561  H     0.54862   0.80265   0.52904   0.00000  Uiso   1.00
H1562  H     0.34967   0.74893   0.66331   0.00000  Uiso   1.00
H1563  H     0.37182   0.76457   0.58682   0.00000  Uiso   1.00
H1564  H     0.44379   0.74775   0.57026   0.00000  Uiso   1.00
H1565  H     0.49431   0.71887   0.63034   0.00000  Uiso   1.00
H1566  H     0.54143   0.92528   0.86099   0.00000  Uiso   1.00
H1567  H     0.60886   0.89821   0.89399   0.00000  Uiso   1.00
H1568  H     0.33854   0.91642   0.85562   0.00000  Uiso   1.00
H1569  H     0.66639   0.96143   0.78362   0.00000  Uiso   1.00
H1570  H     0.59831   0.98543   0.74846   0.00000  Uiso   1.00
H1571  H     0.57932   0.74857   0.81662   0.00000  Uiso   1.00
H1572  H     0.48184   0.75746   0.97090   0.00000  Uiso   1.00
H1573  H     0.60490   0.75729   0.89477   0.00000  Uiso   1.00
H1574  H     0.57182   0.71537   0.95563   0.00000  Uiso   1.00
H1575  H     0.51156   0.99981   0.93730   0.00000  Uiso   1.00
H1576  H     0.48447   0.99284   0.85886   0.00000  Uiso   1.00
H1577  H     0.53262   0.95982   0.65286   0.00000  Uiso   1.00
H1578  H     0.51497   0.95311   0.57179   0.00000  Uiso   1.00
H1579  H     0.44192   0.95213   0.54224   0.00000  Uiso   1.00
H1580  H     0.38643   0.95442   0.59450   0.00000  Uiso   1.00
H1581  H     0.40377   0.96294   0.67502   0.00000  Uiso   1.00
H1582  H     0.48063   0.90529   0.96813   0.00000  Uiso   1.00
H1583  H     0.42528   0.85802   0.52964   0.00000  Uiso   1.00
H1584  H     0.55666   0.80552   0.61136   0.00000  Uiso   1.00
H1585  H     0.48261   0.75956   0.88890   0.00000  Uiso   1.00
H1586  H     0.48302   0.90661   0.88683   0.00000  Uiso   1.00
H1587  H     0.43293   0.85900   0.61211   0.00000  Uiso   1.00
H1588  H     0.39907   0.71559   0.72249   0.00000  Uiso   1.00
N1589  N     0.50000   0.95069   0.75000   0.00000  Uiso   1.00
N1590  N     0.50000   0.71598   0.75000   0.00000  Uiso   1.00
O1591  O     0.43988   0.87291   0.74999   0.00000  Uiso   1.00
O1592  O     0.56012   0.79375   0.75000   0.00000  Uiso   1.00
O1593  O     0.56012   0.87291   0.75000   0.00000  Uiso   1.00
O1594  O     0.43988   0.79375   0.74999   0.00000  Uiso   1.00
O1595  O     0.50000   0.87293   0.68573   0.00000  Uiso   1.00
O1596  O     0.50000   0.79374   0.81427   0.00000  Uiso   1.00
O1597  O     0.50000   0.87293   0.81427   0.00000  Uiso   1.00
O1598  O     0.50000   0.79374   0.68573   0.00000  Uiso   1.00
C1599  C     0.75425   0.83355   0.75025   0.00000  Uiso   1.00
C1600  C     0.97686   0.87044   0.72957   0.00000  Uiso   1.00
C1601  C     0.98039   0.79256   0.76065   0.00000  Uiso   1.00
C1602  C     0.68615   0.87162   0.73228   0.00000  Uiso   1.00
C1603  C     0.85675   0.81537   0.54706   0.00000  Uiso   1.00
C1604  C     0.81617   0.79010   0.95261   0.00000  Uiso   1.00
C1605  C     0.81531   0.87320   0.95103   0.00000  Uiso   1.00
C1606  C     0.78737   0.84675   0.54733   0.00000  Uiso   1.00
C1607  C     0.86146   0.81735   0.59354   0.00000  Uiso   1.00
C1608  C     0.81795   0.79104   0.90629   0.00000  Uiso   1.00
C1609  C     0.81788   0.87383   0.90482   0.00000  Uiso   1.00
C1610  C     0.91235   0.83295   0.74848   0.00000  Uiso   1.00
C1611  C     0.79193   0.84803   0.59387   0.00000  Uiso   1.00
C1612  C     0.82931   0.83459   0.61678   0.00000  Uiso   1.00
C1613  C     0.82241   0.83255   0.88255   0.00000  Uiso   1.00
C1614  C     0.81988   0.83063   0.52391   0.00000  Uiso   1.00
C1615  C     0.81629   0.83126   0.97516   0.00000  Uiso   1.00
C1616  C     0.95695   0.83180   0.74598   0.00000  Uiso   1.00
C1617  C     0.70950   0.83365   0.74997   0.00000  Uiso   1.00
C1618  C     0.78437   0.71826   0.68197   0.00000  Uiso   1.00
C1619  C     0.74299   0.72539   0.69024   0.00000  Uiso   1.00
C1620  C     0.71475   0.74305   0.65638   0.00000  Uiso   1.00
C1621  C     0.83286   0.83389   0.66522   0.00000  Uiso   1.00
C1622  C     0.72715   0.75157   0.61323   0.00000  Uiso   1.00
C1623  C     0.76774   0.74232   0.60395   0.00000  Uiso   1.00
C1624  C     0.79632   0.72602   0.63810   0.00000  Uiso   1.00
C1625  C     0.89742   0.95380   0.80031   0.00000  Uiso   1.00
C1626  C     0.90119   0.93070   0.84234   0.00000  Uiso   1.00
C1627  C     0.93978   0.91644   0.86177   0.00000  Uiso   1.00
C1628  C     0.97528   0.92700   0.84035   0.00000  Uiso   1.00
C1629  C     0.97218   0.95222   0.79974   0.00000  Uiso   1.00
C1630  C     0.93350   0.96543   0.77975   0.00000  Uiso   1.00
C1631  C     0.86278   0.70447   0.83104   0.00000  Uiso   1.00
C1632  C     0.83017   0.83292   0.83468   0.00000  Uiso   1.00
C1633  C     0.89708   0.73146   0.84215   0.00000  Uiso   1.00
C1634  C     0.91185   0.73605   0.88683   0.00000  Uiso   1.00
C1635  C     0.89332   0.71233   0.92112   0.00000  Uiso   1.00
C1636  C     0.85932   0.68495   0.91081   0.00000  Uiso   1.00
C1637  C     0.84369   0.68168   0.86623   0.00000  Uiso   1.00
C1638  C     0.80275   0.95806   0.67084   0.00000  Uiso   1.00
C1639  C     0.83400   0.95646   0.64074   0.00000  Uiso   1.00
C1640  C     0.82409   0.95371   0.59466   0.00000  Uiso   1.00
C1641  C     0.78292   0.95330   0.57799   0.00000  Uiso   1.00
C1642  C     0.75166   0.95401   0.60749   0.00000  Uiso   1.00
C1643  C     0.81212   0.69305   0.71637   0.00000  Uiso   1.00
C1644  C     0.76150   0.95656   0.65361   0.00000  Uiso   1.00
C1645  C     0.85772   0.97394   0.78059   0.00000  Uiso   1.00
C1646  C     0.85284   0.68887   0.78457   0.00000  Uiso   1.00
C1647  C     0.81336   0.97713   0.71544   0.00000  Uiso   1.00
C1648  C     0.68953   0.79438   0.76491   0.00000  Uiso   1.00
Cu1649 Cu    0.83333   0.88022   0.75000   0.00000  Uiso   1.00
Cu1650 Cu    0.83333   0.78645   0.75000   0.00000  Uiso   1.00
F1651  F     0.71089   0.75796   0.78479   0.00000  Uiso   1.00
F1652  F     0.95519   0.90634   0.70915   0.00000  Uiso   1.00
F1653  F     0.96295   0.75178   0.76967   0.00000  Uiso   1.00
F1654  F     0.70433   0.90994   0.71743   0.00000  Uiso   1.00
H1655  H     0.88195   0.80265   0.52904   0.00000  Uiso   1.00
H1656  H     0.68301   0.74893   0.66331   0.00000  Uiso   1.00
H1657  H     0.70516   0.76457   0.58682   0.00000  Uiso   1.00
H1658  H     0.77712   0.74775   0.57026   0.00000  Uiso   1.00
H1659  H     0.82764   0.71887   0.63034   0.00000  Uiso   1.00
H1660  H     0.87477   0.92528   0.86099   0.00000  Uiso   1.00
H1661  H     0.94220   0.89821   0.89399   0.00000  Uiso   1.00
H1662  H     0.67187   0.91642   0.85562   0.00000  Uiso   1.00
H1663  H     0.99973   0.96143   0.78362   0.00000  Uiso   1.00
H1664  H     0.93164   0.98543   0.74846   0.00000  Uiso   1.00
H1665  H     0.91265   0.74857   0.81662   0.00000  Uiso   1.00
H1666  H     0.81517   0.75746   0.97090   0.00000  Uiso   1.00
H1667  H     0.93823   0.75729   0.89477   0.00000  Uiso   1.00
H1668  H     0.90515   0.71537   0.95563   0.00000  Uiso   1.00
H1669  H     0.84490   0.99981   0.93730   0.00000  Uiso   1.00
H1670  H     0.81780   0.99284   0.85886   0.00000  Uiso   1.00
H1671  H     0.86596   0.95982   0.65286   0.00000  Uiso   1.00
H1672  H     0.84830   0.95311   0.57179   0.00000  Uiso   1.00
H1673  H     0.77525   0.95213   0.54224   0.00000  Uiso   1.00
H1674  H     0.71977   0.95442   0.59450   0.00000  Uiso   1.00
H1675  H     0.73710   0.96294   0.67502   0.00000  Uiso   1.00
H1676  H     0.81396   0.90529   0.96813   0.00000  Uiso   1.00
H1677  H     0.75861   0.85802   0.52964   0.00000  Uiso   1.00
H1678  H     0.89000   0.80552   0.61136   0.00000  Uiso   1.00
H1679  H     0.81594   0.75956   0.88890   0.00000  Uiso   1.00
H1680  H     0.81635   0.90661   0.88683   0.00000  Uiso   1.00
H1681  H     0.76626   0.85900   0.61211   0.00000  Uiso   1.00
H1682  H     0.73240   0.71559   0.72249   0.00000  Uiso   1.00
N1683  N     0.83333   0.95069   0.75000   0.00000  Uiso   1.00
N1684  N     0.83333   0.71598   0.75000   0.00000  Uiso   1.00
O1685  O     0.77321   0.87291   0.74999   0.00000  Uiso   1.00
O1686  O     0.89345   0.79375   0.75000   0.00000  Uiso   1.00
O1687  O     0.89345   0.87291   0.75000   0.00000  Uiso   1.00
O1688  O     0.77321   0.79375   0.74999   0.00000  Uiso   1.00
O1689  O     0.83333   0.87293   0.68573   0.00000  Uiso   1.00
O1690  O     0.83334   0.79374   0.81427   0.00000  Uiso   1.00
O1691  O     0.83334   0.87293   0.81427   0.00000  Uiso   1.00
O1692  O     0.83333   0.79374   0.68573   0.00000  Uiso   1.00
loop_
_geom_bond_atom_site_label_1
_geom_bond_atom_site_label_2
_geom_bond_distance
_geom_bond_site_symmetry_2
_ccdc_geom_bond_type
C1     O87     1.310   .     A
C1     O90     1.309   .     A
C1     C19     1.457   .     S
C2     C18     1.400   .     A
C2     F54     1.358   .     S
C2     C98     1.386   .     S
C3     C18     1.407   .     A
C3     F55     1.352   .     S
C3     C144    1.382   .     S
C4     C19     1.402   .     A
C4     F56     1.348   .     S
C4     C190    1.386   1_455 S
C5     C16     1.401   .     A
C5     C9      1.391   .     A
C5     H57     1.084   .     S
C6     H68     1.084   .     S
C6     C17     1.397   .     A
C6     C10     1.391   .     A
C7     C11     1.391   .     A
C7     C17     1.398   .     A
C7     H78     1.084   .     S
C8     H79     1.083   .     S
C8     C16     1.398   .     A
C8     C13     1.392   .     A
C9     H80     1.083   .     S
C9     C14     1.398   .     A
C10    C15     1.397   .     A
C10    H81     1.071   .     S
C11    C15     1.407   .     A
C11    H82     1.080   .     S
C12    O88     1.306   .     A
C12    O89     1.315   .     A
C12    C18     1.461   .     S
C13    C14     1.398   .     A
C13    H83     1.083   .     S
C14    C23     1.445   .     S
C15    C34     1.473   .     S
C16    C863    1.455   1_554 S
C17    C862    1.455   .     S
C19    C50     1.400   .     A
C20    C45     1.487   .     S
C20    C26     1.408   .     A
C20    C21     1.403   .     A
C21    H84     1.079   .     S
C21    C22     1.398   .     A
C22    H58     1.082   .     S
C22    C24     1.397   .     A
C23    O91     1.311   .     A
C23    O94     1.303   .     A
C24    C25     1.396   .     A
C24    H59     1.082   .     S
C25    H60     1.082   .     S
C25    C26     1.398   .     A
C26    H61     1.083   .     S
C27    C47     1.487   .     S
C27    C32     1.406   .     A
C27    C28     1.403   .     A
C28    C29     1.398   .     A
C28    H62     1.071   .     S
C29    H63     1.082   .     S
C29    C30     1.396   .     A
C30    C31     1.396   .     A
C30    H158    1.082   .     S
C31    C32     1.398   .     A
C31    H65     1.082   .     S
C32    H66     1.084   .     S
C33    C39     1.413   .     A
C33    C35     1.401   .     A
C33    C48     1.492   .     S
C34    O93     1.307   .     A
C34    O92     1.321   .     A
C35    C36     1.399   .     A
C35    H67     1.062   .     S
C36    C37     1.396   .     A
C36    H69     1.082   .     S
C37    C38     1.396   .     A
C37    H70     1.082   .     S
C38    C39     1.399   .     A
C38    H635    1.082   1_545 S
C39    H636    1.083   1_545 S
C40    C49     1.483   .     S
C40    C41     1.410   .     A
C40    C46     1.405   .     A
C41    C42     1.398   .     A
C41    H73     1.084   .     S
C42    H74     1.082   .     S
C42    C43     1.396   .     A
C43    C44     1.397   .     A
C43    H75     1.082   .     S
C44    H76     1.082   .     S
C44    C46     1.398   .     A
C45    N86     1.376   .     A
C45    C613    1.438   1_545 S
C46    H77     1.076   .     S
C47    N85     1.370   .     A
C47    C330    1.425   .     S
C48    N86     1.391   .     A
C48    C611    1.425   1_545 S
C49    N85     1.386   .     A
C49    C327    1.438   .     S
C50    F53     1.358   .     S
C50    C191    1.382   1_455 S
Cu51   N85     2.055   .     S
Cu51   O91     1.942   .     S
Cu51   Cu52    2.735   .     S
Cu51   O87     1.973   .     S
Cu51   O93     1.928   .     S
Cu51   O89     1.968   .     S
Cu52   O90     1.968   .     S
Cu52   O94     1.928   .     S
Cu52   O88     1.973   .     S
Cu52   O92     1.942   .     S
Cu52   N86     2.055   .     S
H64    C218    1.082   1_455 S
H71    C320    1.082   .     S
H72    C321    1.083   .     S
C95    O181    1.310   .     A
C95    O184    1.309   .     A
C95    C113    1.457   .     S
C96    C112    1.400   .     A
C96    F148    1.358   .     S
C96    C192    1.386   .     S
C97    C112    1.407   .     A
C97    F149    1.352   .     S
C97    C238    1.382   .     S
C98    C113    1.402   .     A
C98    F150    1.348   .     S
C99    C110    1.401   .     A
C99    C103    1.391   .     A
C99    H151    1.084   .     S
C100   H162    1.084   .     S
C100   C111    1.397   .     A
C100   C104    1.391   .     A
C101   C105    1.391   .     A
C101   C111    1.398   .     A
C101   H172    1.084   .     S
C102   H173    1.083   .     S
C102   C110    1.398   .     A
C102   C107    1.392   .     A
C103   H174    1.083   .     S
C103   C108    1.398   .     A
C104   C109    1.397   .     A
C104   H175    1.071   .     S
C105   C109    1.407   .     A
C105   H176    1.080   .     S
C106   O182    1.306   .     A
C106   O183    1.315   .     A
C106   C112    1.461   .     S
C107   C108    1.398   .     A
C107   H177    1.083   .     S
C108   C117    1.445   .     S
C109   C128    1.473   .     S
C110   C957    1.455   1_554 S
C111   C956    1.455   .     S
C113   C144    1.400   .     A
C114   C139    1.487   .     S
C114   C120    1.408   .     A
C114   C115    1.403   .     A
C115   H178    1.079   .     S
C115   C116    1.398   .     A
C116   H152    1.082   .     S
C116   C118    1.397   .     A
C117   O185    1.311   .     A
C117   O188    1.303   .     A
C118   C119    1.396   .     A
C118   H153    1.082   .     S
C119   H154    1.082   .     S
C119   C120    1.398   .     A
C120   H155    1.083   .     S
C121   C141    1.487   .     S
C121   C126    1.406   .     A
C121   C122    1.403   .     A
C122   C123    1.398   .     A
C122   H156    1.071   .     S
C123   H157    1.082   .     S
C123   C124    1.396   .     A
C124   C125    1.396   .     A
C124   H252    1.082   .     S
C125   C126    1.398   .     A
C125   H159    1.082   .     S
C126   H160    1.084   .     S
C127   C133    1.413   .     A
C127   C129    1.401   .     A
C127   C142    1.492   .     S
C128   O187    1.307   .     A
C128   O186    1.321   .     A
C129   C130    1.399   .     A
C129   H161    1.062   .     S
C130   C131    1.396   .     A
C130   H163    1.082   .     S
C131   C132    1.396   .     A
C131   H164    1.082   .     S
C132   C133    1.399   .     A
C132   H729    1.082   1_545 S
C133   H730    1.083   1_545 S
C134   C143    1.483   .     S
C134   C135    1.410   .     A
C134   C140    1.405   .     A
C135   C136    1.398   .     A
C135   H167    1.084   .     S
C136   H168    1.082   .     S
C136   C137    1.396   .     A
C137   C138    1.397   .     A
C137   H169    1.082   .     S
C138   H170    1.082   .     S
C138   C140    1.398   .     A
C139   N180    1.376   .     A
C139   C707    1.438   1_545 S
C140   H171    1.076   .     S
C141   N179    1.370   .     A
C141   C424    1.425   .     S
C142   N180    1.391   .     A
C142   C705    1.425   1_545 S
C143   N179    1.386   .     A
C143   C421    1.438   .     S
C144   F147    1.358   .     S
Cu145  N179    2.055   .     S
Cu145  O185    1.942   .     S
Cu145  Cu146   2.735   .     S
Cu145  O181    1.973   .     S
Cu145  O187    1.928   .     S
Cu145  O183    1.968   .     S
Cu146  O184    1.968   .     S
Cu146  O188    1.928   .     S
Cu146  O182    1.973   .     S
Cu146  O186    1.942   .     S
Cu146  N180    2.055   .     S
H165   C414    1.082   .     S
H166   C415    1.083   .     S
C189   O275    1.310   .     A
C189   O278    1.309   .     A
C189   C207    1.457   .     S
C190   C206    1.400   .     A
C190   F242    1.358   .     S
C190   C4      1.386   1_655 S
C191   C206    1.407   .     A
C191   F243    1.352   .     S
C191   C50     1.382   1_655 S
C192   C207    1.402   .     A
C192   F244    1.348   .     S
C193   C204    1.401   .     A
C193   C197    1.391   .     A
C193   H245    1.084   .     S
C194   H256    1.084   .     S
C194   C205    1.397   .     A
C194   C198    1.391   .     A
C195   C199    1.391   .     A
C195   C205    1.398   .     A
C195   H266    1.084   .     S
C196   H267    1.083   .     S
C196   C204    1.398   .     A
C196   C201    1.392   .     A
C197   H268    1.083   .     S
C197   C202    1.398   .     A
C198   C203    1.397   .     A
C198   H269    1.071   .     S
C199   C203    1.407   .     A
C199   H270    1.080   .     S
C200   O276    1.306   .     A
C200   O277    1.315   .     A
C200   C206    1.461   .     S
C201   C202    1.398   .     A
C201   H271    1.083   .     S
C202   C211    1.445   .     S
C203   C222    1.473   .     S
C204   C1051   1.455   1_554 S
C205   C1050   1.455   .     S
C207   C238    1.400   .     A
C208   C233    1.487   .     S
C208   C214    1.408   .     A
C208   C209    1.403   .     A
C209   H272    1.079   .     S
C209   C210    1.398   .     A
C210   H246    1.082   .     S
C210   C212    1.397   .     A
C211   O279    1.311   .     A
C211   O282    1.303   .     A
C212   C213    1.396   .     A
C212   H247    1.082   .     S
C213   H248    1.082   .     S
C213   C214    1.398   .     A
C214   H249    1.083   .     S
C215   C235    1.487   .     S
C215   C220    1.406   .     A
C215   C216    1.403   .     A
C216   C217    1.398   .     A
C216   H250    1.071   .     S
C217   H251    1.082   .     S
C217   C218    1.396   .     A
C218   C219    1.396   .     A
C218   H64     1.082   1_655 S
C219   C220    1.398   .     A
C219   H253    1.082   .     S
C220   H254    1.084   .     S
C221   C227    1.413   .     A
C221   C223    1.401   .     A
C221   C236    1.492   .     S
C222   O281    1.307   .     A
C222   O280    1.321   .     A
C223   C224    1.399   .     A
C223   H255    1.062   .     S
C224   C225    1.396   .     A
C224   H257    1.082   .     S
C225   C226    1.396   .     A
C225   H258    1.082   .     S
C226   C227    1.399   .     A
C226   H823    1.082   1_545 S
C227   H824    1.083   1_545 S
C228   C237    1.483   .     S
C228   C229    1.410   .     A
C228   C234    1.405   .     A
C229   C230    1.398   .     A
C229   H261    1.084   .     S
C230   H262    1.082   .     S
C230   C231    1.396   .     A
C231   C232    1.397   .     A
C231   H263    1.082   .     S
C232   H264    1.082   .     S
C232   C234    1.398   .     A
C233   N274    1.376   .     A
C233   C801    1.438   1_545 S
C234   H265    1.076   .     S
C235   N273    1.370   .     A
C235   C518    1.425   .     S
C236   N274    1.391   .     A
C236   C799    1.425   1_545 S
C237   N273    1.386   .     A
C237   C515    1.438   .     S
C238   F241    1.358   .     S
Cu239  N273    2.055   .     S
Cu239  O279    1.942   .     S
Cu239  Cu240   2.735   .     S
Cu239  O275    1.973   .     S
Cu239  O281    1.928   .     S
Cu239  O277    1.968   .     S
Cu240  O278    1.968   .     S
Cu240  O282    1.928   .     S
Cu240  O276    1.973   .     S
Cu240  O280    1.942   .     S
Cu240  N274    2.055   .     S
H259   C508    1.082   .     S
H260   C509    1.083   .     S
C283   O369    1.310   .     A
C283   O372    1.309   .     A
C283   C301    1.457   .     S
C284   C300    1.400   .     A
C284   F336    1.358   .     S
C284   C380    1.386   .     S
C285   C300    1.407   .     A
C285   F337    1.352   .     S
C285   C426    1.382   .     S
C286   C301    1.402   .     A
C286   F338    1.348   .     S
C286   C472    1.386   1_455 S
C287   C298    1.401   .     A
C287   C291    1.391   .     A
C287   H339    1.084   .     S
C288   H350    1.084   .     S
C288   C299    1.397   .     A
C288   C292    1.391   .     A
C289   C293    1.391   .     A
C289   C299    1.398   .     A
C289   H360    1.084   .     S
C290   H361    1.083   .     S
C290   C298    1.398   .     A
C290   C295    1.392   .     A
C291   H362    1.083   .     S
C291   C296    1.398   .     A
C292   C297    1.397   .     A
C292   H363    1.071   .     S
C293   C297    1.407   .     A
C293   H364    1.080   .     S
C294   O370    1.306   .     A
C294   O371    1.315   .     A
C294   C300    1.461   .     S
C295   C296    1.398   .     A
C295   H365    1.083   .     S
C296   C305    1.445   .     S
C297   C316    1.473   .     S
C298   C1145   1.455   1_554 S
C299   C1144   1.455   .     S
C301   C332    1.400   .     A
C302   C327    1.487   .     S
C302   C308    1.408   .     A
C302   C303    1.403   .     A
C303   H366    1.079   .     S
C303   C304    1.398   .     A
C304   H340    1.082   .     S
C304   C306    1.397   .     A
C305   O373    1.311   .     A
C305   O376    1.303   .     A
C306   C307    1.396   .     A
C306   H341    1.082   .     S
C307   H342    1.082   .     S
C307   C308    1.398   .     A
C308   H343    1.083   .     S
C309   C329    1.487   .     S
C309   C314    1.406   .     A
C309   C310    1.403   .     A
C310   C311    1.398   .     A
C310   H344    1.071   .     S
C311   H345    1.082   .     S
C311   C312    1.396   .     A
C312   C313    1.396   .     A
C312   H440    1.082   .     S
C313   C314    1.398   .     A
C313   H347    1.082   .     S
C314   H348    1.084   .     S
C315   C321    1.413   .     A
C315   C317    1.401   .     A
C315   C330    1.492   .     S
C316   O375    1.307   .     A
C316   O374    1.321   .     A
C317   C318    1.399   .     A
C317   H349    1.062   .     S
C318   C319    1.396   .     A
C318   H351    1.082   .     S
C319   C320    1.396   .     A
C319   H352    1.082   .     S
C320   C321    1.399   .     A
C322   C331    1.483   .     S
C322   C323    1.410   .     A
C322   C328    1.405   .     A
C323   C324    1.398   .     A
C323   H355    1.084   .     S
C324   H356    1.082   .     S
C324   C325    1.396   .     A
C325   C326    1.397   .     A
C325   H357    1.082   .     S
C326   H358    1.082   .     S
C326   C328    1.398   .     A
C327   N368    1.376   .     A
C328   H359    1.076   .     S
C329   N367    1.370   .     A
C329   C612    1.425   .     S
C330   N368    1.391   .     A
C331   N367    1.386   .     A
C331   C609    1.438   .     S
C332   F335    1.358   .     S
C332   C473    1.382   1_455 S
Cu333  N367    2.055   .     S
Cu333  O373    1.942   .     S
Cu333  Cu334   2.735   .     S
Cu333  O369    1.973   .     S
Cu333  O375    1.928   .     S
Cu333  O371    1.968   .     S
Cu334  O372    1.968   .     S
Cu334  O376    1.928   .     S
Cu334  O370    1.973   .     S
Cu334  O374    1.942   .     S
Cu334  N368    2.055   .     S
H346   C500    1.082   1_455 S
H353   C602    1.082   .     S
H354   C603    1.083   .     S
C377   O463    1.310   .     A
C377   O466    1.309   .     A
C377   C395    1.457   .     S
C378   C394    1.400   .     A
C378   F430    1.358   .     S
C378   C474    1.386   .     S
C379   C394    1.407   .     A
C379   F431    1.352   .     S
C379   C520    1.382   .     S
C380   C395    1.402   .     A
C380   F432    1.348   .     S
C381   C392    1.401   .     A
C381   C385    1.391   .     A
C381   H433    1.084   .     S
C382   H444    1.084   .     S
C382   C393    1.397   .     A
C382   C386    1.391   .     A
C383   C387    1.391   .     A
C383   C393    1.398   .     A
C383   H454    1.084   .     S
C384   H455    1.083   .     S
C384   C392    1.398   .     A
C384   C389    1.392   .     A
C385   H456    1.083   .     S
C385   C390    1.398   .     A
C386   C391    1.397   .     A
C386   H457    1.071   .     S
C387   C391    1.407   .     A
C387   H458    1.080   .     S
C388   O464    1.306   .     A
C388   O465    1.315   .     A
C388   C394    1.461   .     S
C389   C390    1.398   .     A
C389   H459    1.083   .     S
C390   C399    1.445   .     S
C391   C410    1.473   .     S
C392   C1239   1.455   1_554 S
C393   C1238   1.455   .     S
C395   C426    1.400   .     A
C396   C421    1.487   .     S
C396   C402    1.408   .     A
C396   C397    1.403   .     A
C397   H460    1.079   .     S
C397   C398    1.398   .     A
C398   H434    1.082   .     S
C398   C400    1.397   .     A
C399   O467    1.311   .     A
C399   O470    1.303   .     A
C400   C401    1.396   .     A
C400   H435    1.082   .     S
C401   H436    1.082   .     S
C401   C402    1.398   .     A
C402   H437    1.083   .     S
C403   C423    1.487   .     S
C403   C408    1.406   .     A
C403   C404    1.403   .     A
C404   C405    1.398   .     A
C404   H438    1.071   .     S
C405   H439    1.082   .     S
C405   C406    1.396   .     A
C406   C407    1.396   .     A
C406   H534    1.082   .     S
C407   C408    1.398   .     A
C407   H441    1.082   .     S
C408   H442    1.084   .     S
C409   C415    1.413   .     A
C409   C411    1.401   .     A
C409   C424    1.492   .     S
C410   O469    1.307   .     A
C410   O468    1.321   .     A
C411   C412    1.399   .     A
C411   H443    1.062   .     S
C412   C413    1.396   .     A
C412   H445    1.082   .     S
C413   C414    1.396   .     A
C413   H446    1.082   .     S
C414   C415    1.399   .     A
C416   C425    1.483   .     S
C416   C417    1.410   .     A
C416   C422    1.405   .     A
C417   C418    1.398   .     A
C417   H449    1.084   .     S
C418   H450    1.082   .     S
C418   C419    1.396   .     A
C419   C420    1.397   .     A
C419   H451    1.082   .     S
C420   H452    1.082   .     S
C420   C422    1.398   .     A
C421   N462    1.376   .     A
C422   H453    1.076   .     S
C423   N461    1.370   .     A
C423   C706    1.425   .     S
C424   N462    1.391   .     A
C425   N461    1.386   .     A
C425   C703    1.438   .     S
C426   F429    1.358   .     S
Cu427  N461    2.055   .     S
Cu427  O467    1.942   .     S
Cu427  Cu428   2.735   .     S
Cu427  O463    1.973   .     S
Cu427  O469    1.928   .     S
Cu427  O465    1.968   .     S
Cu428  O466    1.968   .     S
Cu428  O470    1.928   .     S
Cu428  O464    1.973   .     S
Cu428  O468    1.942   .     S
Cu428  N462    2.055   .     S
H447   C696    1.082   .     S
H448   C697    1.083   .     S
C471   O557    1.310   .     A
C471   O560    1.309   .     A
C471   C489    1.457   .     S
C472   C488    1.400   .     A
C472   F524    1.358   .     S
C472   C286    1.386   1_655 S
C473   C488    1.407   .     A
C473   F525    1.352   .     S
C473   C332    1.382   1_655 S
C474   C489    1.402   .     A
C474   F526    1.348   .     S
C475   C486    1.401   .     A
C475   C479    1.391   .     A
C475   H527    1.084   .     S
C476   H538    1.084   .     S
C476   C487    1.397   .     A
C476   C480    1.391   .     A
C477   C481    1.391   .     A
C477   C487    1.398   .     A
C477   H548    1.084   .     S
C478   H549    1.083   .     S
C478   C486    1.398   .     A
C478   C483    1.392   .     A
C479   H550    1.083   .     S
C479   C484    1.398   .     A
C480   C485    1.397   .     A
C480   H551    1.071   .     S
C481   C485    1.407   .     A
C481   H552    1.080   .     S
C482   O558    1.306   .     A
C482   O559    1.315   .     A
C482   C488    1.461   .     S
C483   C484    1.398   .     A
C483   H553    1.083   .     S
C484   C493    1.445   .     S
C485   C504    1.473   .     S
C486   C1333   1.455   1_554 S
C487   C1332   1.455   .     S
C489   C520    1.400   .     A
C490   C515    1.487   .     S
C490   C496    1.408   .     A
C490   C491    1.403   .     A
C491   H554    1.079   .     S
C491   C492    1.398   .     A
C492   H528    1.082   .     S
C492   C494    1.397   .     A
C493   O561    1.311   .     A
C493   O564    1.303   .     A
C494   C495    1.396   .     A
C494   H529    1.082   .     S
C495   H530    1.082   .     S
C495   C496    1.398   .     A
C496   H531    1.083   .     S
C497   C517    1.487   .     S
C497   C502    1.406   .     A
C497   C498    1.403   .     A
C498   C499    1.398   .     A
C498   H532    1.071   .     S
C499   H533    1.082   .     S
C499   C500    1.396   .     A
C500   C501    1.396   .     A
C500   H346    1.082   1_655 S
C501   C502    1.398   .     A
C501   H535    1.082   .     S
C502   H536    1.084   .     S
C503   C509    1.413   .     A
C503   C505    1.401   .     A
C503   C518    1.492   .     S
C504   O563    1.307   .     A
C504   O562    1.321   .     A
C505   C506    1.399   .     A
C505   H537    1.062   .     S
C506   C507    1.396   .     A
C506   H539    1.082   .     S
C507   C508    1.396   .     A
C507   H540    1.082   .     S
C508   C509    1.399   .     A
C510   C519    1.483   .     S
C510   C511    1.410   .     A
C510   C516    1.405   .     A
C511   C512    1.398   .     A
C511   H543    1.084   .     S
C512   H544    1.082   .     S
C512   C513    1.396   .     A
C513   C514    1.397   .     A
C513   H545    1.082   .     S
C514   H546    1.082   .     S
C514   C516    1.398   .     A
C515   N556    1.376   .     A
C516   H547    1.076   .     S
C517   N555    1.370   .     A
C517   C800    1.425   .     S
C518   N556    1.391   .     A
C519   N555    1.386   .     A
C519   C797    1.438   .     S
C520   F523    1.358   .     S
Cu521  N555    2.055   .     S
Cu521  O561    1.942   .     S
Cu521  Cu522   2.735   .     S
Cu521  O557    1.973   .     S
Cu521  O563    1.928   .     S
Cu521  O559    1.968   .     S
Cu522  O560    1.968   .     S
Cu522  O564    1.928   .     S
Cu522  O558    1.973   .     S
Cu522  O562    1.942   .     S
Cu522  N556    2.055   .     S
H541   C790    1.082   .     S
H542   C791    1.083   .     S
C565   O651    1.310   .     A
C565   O654    1.309   .     A
C565   C583    1.457   .     S
C566   C582    1.400   .     A
C566   F618    1.358   .     S
C566   C662    1.386   .     S
C567   C582    1.407   .     A
C567   F619    1.352   .     S
C567   C708    1.382   .     S
C568   C583    1.402   .     A
C568   F620    1.348   .     S
C568   C754    1.386   1_455 S
C569   C580    1.401   .     A
C569   C573    1.391   .     A
C569   H621    1.084   .     S
C570   H632    1.084   .     S
C570   C581    1.397   .     A
C570   C574    1.391   .     A
C571   C575    1.391   .     A
C571   C581    1.398   .     A
C571   H642    1.084   .     S
C572   H643    1.083   .     S
C572   C580    1.398   .     A
C572   C577    1.392   .     A
C573   H644    1.083   .     S
C573   C578    1.398   .     A
C574   C579    1.397   .     A
C574   H645    1.071   .     S
C575   C579    1.407   .     A
C575   H646    1.080   .     S
C576   O652    1.306   .     A
C576   O653    1.315   .     A
C576   C582    1.461   .     S
C577   C578    1.398   .     A
C577   H647    1.083   .     S
C578   C587    1.445   .     S
C579   C598    1.473   .     S
C580   C1427   1.455   1_554 S
C581   C1426   1.455   .     S
C583   C614    1.400   .     A
C584   C609    1.487   .     S
C584   C590    1.408   .     A
C584   C585    1.403   .     A
C585   H648    1.079   .     S
C585   C586    1.398   .     A
C586   H622    1.082   .     S
C586   C588    1.397   .     A
C587   O655    1.311   .     A
C587   O658    1.303   .     A
C588   C589    1.396   .     A
C588   H623    1.082   .     S
C589   H624    1.082   .     S
C589   C590    1.398   .     A
C590   H625    1.083   .     S
C591   C611    1.487   .     S
C591   C596    1.406   .     A
C591   C592    1.403   .     A
C592   C593    1.398   .     A
C592   H626    1.071   .     S
C593   H627    1.082   .     S
C593   C594    1.396   .     A
C594   C595    1.396   .     A
C594   H722    1.082   .     S
C595   C596    1.398   .     A
C595   H629    1.082   .     S
C596   H630    1.084   .     S
C597   C603    1.413   .     A
C597   C599    1.401   .     A
C597   C612    1.492   .     S
C598   O657    1.307   .     A
C598   O656    1.321   .     A
C599   C600    1.399   .     A
C599   H631    1.062   .     S
C600   C601    1.396   .     A
C600   H633    1.082   .     S
C601   C602    1.396   .     A
C601   H634    1.082   .     S
C602   C603    1.399   .     A
C604   C613    1.483   .     S
C604   C605    1.410   .     A
C604   C610    1.405   .     A
C605   C606    1.398   .     A
C605   H637    1.084   .     S
C606   H638    1.082   .     S
C606   C607    1.396   .     A
C607   C608    1.397   .     A
C607   H639    1.082   .     S
C608   H640    1.082   .     S
C608   C610    1.398   .     A
C609   N650    1.376   .     A
C610   H641    1.076   .     S
C611   N649    1.370   .     A
C611   C48     1.425   1_565 S
C612   N650    1.391   .     A
C613   N649    1.386   .     A
C613   C45     1.438   1_565 S
C614   F617    1.358   .     S
C614   C755    1.382   1_455 S
Cu615  N649    2.055   .     S
Cu615  O655    1.942   .     S
Cu615  Cu616   2.735   .     S
Cu615  O651    1.973   .     S
Cu615  O657    1.928   .     S
Cu615  O653    1.968   .     S
Cu616  O654    1.968   .     S
Cu616  O658    1.928   .     S
Cu616  O652    1.973   .     S
Cu616  O656    1.942   .     S
Cu616  N650    2.055   .     S
H628   C782    1.082   1_455 S
H635   C38     1.082   1_565 S
H636   C39     1.083   1_565 S
C659   O745    1.310   .     A
C659   O748    1.309   .     A
C659   C677    1.457   .     S
C660   C676    1.400   .     A
C660   F712    1.358   .     S
C660   C756    1.386   .     S
C661   C676    1.407   .     A
C661   F713    1.352   .     S
C661   C802    1.382   .     S
C662   C677    1.402   .     A
C662   F714    1.348   .     S
C663   C674    1.401   .     A
C663   C667    1.391   .     A
C663   H715    1.084   .     S
C664   H726    1.084   .     S
C664   C675    1.397   .     A
C664   C668    1.391   .     A
C665   C669    1.391   .     A
C665   C675    1.398   .     A
C665   H736    1.084   .     S
C666   H737    1.083   .     S
C666   C674    1.398   .     A
C666   C671    1.392   .     A
C667   H738    1.083   .     S
C667   C672    1.398   .     A
C668   C673    1.397   .     A
C668   H739    1.071   .     S
C669   C673    1.407   .     A
C669   H740    1.080   .     S
C670   O746    1.306   .     A
C670   O747    1.315   .     A
C670   C676    1.461   .     S
C671   C672    1.398   .     A
C671   H741    1.083   .     S
C672   C681    1.445   .     S
C673   C692    1.473   .     S
C674   C1521   1.455   1_554 S
C675   C1520   1.455   .     S
C677   C708    1.400   .     A
C678   C703    1.487   .     S
C678   C684    1.408   .     A
C678   C679    1.403   .     A
C679   H742    1.079   .     S
C679   C680    1.398   .     A
C680   H716    1.082   .     S
C680   C682    1.397   .     A
C681   O749    1.311   .     A
C681   O752    1.303   .     A
C682   C683    1.396   .     A
C682   H717    1.082   .     S
C683   H718    1.082   .     S
C683   C684    1.398   .     A
C684   H719    1.083   .     S
C685   C705    1.487   .     S
C685   C690    1.406   .     A
C685   C686    1.403   .     A
C686   C687    1.398   .     A
C686   H720    1.071   .     S
C687   H721    1.082   .     S
C687   C688    1.396   .     A
C688   C689    1.396   .     A
C688   H816    1.082   .     S
C689   C690    1.398   .     A
C689   H723    1.082   .     S
C690   H724    1.084   .     S
C691   C697    1.413   .     A
C691   C693    1.401   .     A
C691   C706    1.492   .     S
C692   O751    1.307   .     A
C692   O750    1.321   .     A
C693   C694    1.399   .     A
C693   H725    1.062   .     S
C694   C695    1.396   .     A
C694   H727    1.082   .     S
C695   C696    1.396   .     A
C695   H728    1.082   .     S
C696   C697    1.399   .     A
C698   C707    1.483   .     S
C698   C699    1.410   .     A
C698   C704    1.405   .     A
C699   C700    1.398   .     A
C699   H731    1.084   .     S
C700   H732    1.082   .     S
C700   C701    1.396   .     A
C701   C702    1.397   .     A
C701   H733    1.082   .     S
C702   H734    1.082   .     S
C702   C704    1.398   .     A
C703   N744    1.376   .     A
C704   H735    1.076   .     S
C705   N743    1.370   .     A
C705   C142    1.425   1_565 S
C706   N744    1.391   .     A
C707   N743    1.386   .     A
C707   C139    1.438   1_565 S
C708   F711    1.358   .     S
Cu709  N743    2.055   .     S
Cu709  O749    1.942   .     S
Cu709  Cu710   2.735   .     S
Cu709  O745    1.973   .     S
Cu709  O751    1.928   .     S
Cu709  O747    1.968   .     S
Cu710  O748    1.968   .     S
Cu710  O752    1.928   .     S
Cu710  O746    1.973   .     S
Cu710  O750    1.942   .     S
Cu710  N744    2.055   .     S
H729   C132    1.082   1_565 S
H730   C133    1.083   1_565 S
C753   O839    1.310   .     A
C753   O842    1.309   .     A
C753   C771    1.457   .     S
C754   C770    1.400   .     A
C754   F806    1.358   .     S
C754   C568    1.386   1_655 S
C755   C770    1.407   .     A
C755   F807    1.352   .     S
C755   C614    1.382   1_655 S
C756   C771    1.402   .     A
C756   F808    1.348   .     S
C757   C768    1.401   .     A
C757   C761    1.391   .     A
C757   H809    1.084   .     S
C758   H820    1.084   .     S
C758   C769    1.397   .     A
C758   C762    1.391   .     A
C759   C763    1.391   .     A
C759   C769    1.398   .     A
C759   H830    1.084   .     S
C760   H831    1.083   .     S
C760   C768    1.398   .     A
C760   C765    1.392   .     A
C761   H832    1.083   .     S
C761   C766    1.398   .     A
C762   C767    1.397   .     A
C762   H833    1.071   .     S
C763   C767    1.407   .     A
C763   H834    1.080   .     S
C764   O840    1.306   .     A
C764   O841    1.315   .     A
C764   C770    1.461   .     S
C765   C766    1.398   .     A
C765   H835    1.083   .     S
C766   C775    1.445   .     S
C767   C786    1.473   .     S
C768   C1615   1.455   1_554 S
C769   C1614   1.455   .     S
C771   C802    1.400   .     A
C772   C797    1.487   .     S
C772   C778    1.408   .     A
C772   C773    1.403   .     A
C773   H836    1.079   .     S
C773   C774    1.398   .     A
C774   H810    1.082   .     S
C774   C776    1.397   .     A
C775   O843    1.311   .     A
C775   O846    1.303   .     A
C776   C777    1.396   .     A
C776   H811    1.082   .     S
C777   H812    1.082   .     S
C777   C778    1.398   .     A
C778   H813    1.083   .     S
C779   C799    1.487   .     S
C779   C784    1.406   .     A
C779   C780    1.403   .     A
C780   C781    1.398   .     A
C780   H814    1.071   .     S
C781   H815    1.082   .     S
C781   C782    1.396   .     A
C782   C783    1.396   .     A
C782   H628    1.082   1_655 S
C783   C784    1.398   .     A
C783   H817    1.082   .     S
C784   H818    1.084   .     S
C785   C791    1.413   .     A
C785   C787    1.401   .     A
C785   C800    1.492   .     S
C786   O845    1.307   .     A
C786   O844    1.321   .     A
C787   C788    1.399   .     A
C787   H819    1.062   .     S
C788   C789    1.396   .     A
C788   H821    1.082   .     S
C789   C790    1.396   .     A
C789   H822    1.082   .     S
C790   C791    1.399   .     A
C792   C801    1.483   .     S
C792   C793    1.410   .     A
C792   C798    1.405   .     A
C793   C794    1.398   .     A
C793   H825    1.084   .     S
C794   H826    1.082   .     S
C794   C795    1.396   .     A
C795   C796    1.397   .     A
C795   H827    1.082   .     S
C796   H828    1.082   .     S
C796   C798    1.398   .     A
C797   N838    1.376   .     A
C798   H829    1.076   .     S
C799   N837    1.370   .     A
C799   C236    1.425   1_565 S
C800   N838    1.391   .     A
C801   N837    1.386   .     A
C801   C233    1.438   1_565 S
C802   F805    1.358   .     S
Cu803  N837    2.055   .     S
Cu803  O843    1.942   .     S
Cu803  Cu804   2.735   .     S
Cu803  O839    1.973   .     S
Cu803  O845    1.928   .     S
Cu803  O841    1.968   .     S
Cu804  O842    1.968   .     S
Cu804  O846    1.928   .     S
Cu804  O840    1.973   .     S
Cu804  O844    1.942   .     S
Cu804  N838    2.055   .     S
H823   C226    1.082   1_565 S
H824   C227    1.083   1_565 S
C847   O933    1.310   .     A
C847   O936    1.309   .     A
C847   C865    1.457   .     S
C848   C864    1.400   .     A
C848   F900    1.358   .     S
C848   C944    1.386   .     S
C849   C864    1.407   .     A
C849   F901    1.352   .     S
C849   C990    1.382   .     S
C850   C865    1.402   .     A
C850   F902    1.348   .     S
C850   C1036   1.386   1_455 S
C851   C862    1.401   .     A
C851   C855    1.391   .     A
C851   H903    1.084   .     S
C852   H914    1.084   .     S
C852   C863    1.397   .     A
C852   C856    1.391   .     A
C853   C857    1.391   .     A
C853   C863    1.398   .     A
C853   H924    1.084   .     S
C854   H925    1.083   .     S
C854   C862    1.398   .     A
C854   C859    1.392   .     A
C855   H926    1.083   .     S
C855   C860    1.398   .     A
C856   C861    1.397   .     A
C856   H927    1.071   .     S
C857   C861    1.407   .     A
C857   H928    1.080   .     S
C858   O934    1.306   .     A
C858   O935    1.315   .     A
C858   C864    1.461   .     S
C859   C860    1.398   .     A
C859   H929    1.083   .     S
C860   C869    1.445   .     S
C861   C880    1.473   .     S
C863   C16     1.455   1_556 S
C865   C896    1.400   .     A
C866   C891    1.487   .     S
C866   C872    1.408   .     A
C866   C867    1.403   .     A
C867   H930    1.079   .     S
C867   C868    1.398   .     A
C868   H904    1.082   .     S
C868   C870    1.397   .     A
C869   O937    1.311   .     A
C869   O940    1.303   .     A
C870   C871    1.396   .     A
C870   H905    1.082   .     S
C871   H906    1.082   .     S
C871   C872    1.398   .     A
C872   H907    1.083   .     S
C873   C893    1.487   .     S
C873   C878    1.406   .     A
C873   C874    1.403   .     A
C874   C875    1.398   .     A
C874   H908    1.071   .     S
C875   H909    1.082   .     S
C875   C876    1.396   .     A
C876   C877    1.396   .     A
C876   H1004   1.082   .     S
C877   C878    1.398   .     A
C877   H911    1.082   .     S
C878   H912    1.084   .     S
C879   C885    1.413   .     A
C879   C881    1.401   .     A
C879   C894    1.492   .     S
C880   O939    1.307   .     A
C880   O938    1.321   .     A
C881   C882    1.399   .     A
C881   H913    1.062   .     S
C882   C883    1.396   .     A
C882   H915    1.082   .     S
C883   C884    1.396   .     A
C883   H916    1.082   .     S
C884   C885    1.399   .     A
C884   H1481   1.082   1_545 S
C885   H1482   1.083   1_545 S
C886   C895    1.483   .     S
C886   C887    1.410   .     A
C886   C892    1.405   .     A
C887   C888    1.398   .     A
C887   H919    1.084   .     S
C888   H920    1.082   .     S
C888   C889    1.396   .     A
C889   C890    1.397   .     A
C889   H921    1.082   .     S
C890   H922    1.082   .     S
C890   C892    1.398   .     A
C891   N932    1.376   .     A
C891   C1459   1.438   1_545 S
C892   H923    1.076   .     S
C893   N931    1.370   .     A
C893   C1176   1.425   .     S
C894   N932    1.391   .     A
C894   C1457   1.425   1_545 S
C895   N931    1.386   .     A
C895   C1173   1.438   .     S
C896   F899    1.358   .     S
C896   C1037   1.382   1_455 S
Cu897  N931    2.055   .     S
Cu897  O937    1.942   .     S
Cu897  Cu898   2.735   .     S
Cu897  O933    1.973   .     S
Cu897  O939    1.928   .     S
Cu897  O935    1.968   .     S
Cu898  O936    1.968   .     S
Cu898  O940    1.928   .     S
Cu898  O934    1.973   .     S
Cu898  O938    1.942   .     S
Cu898  N932    2.055   .     S
H910   C1064   1.082   1_455 S
H917   C1166   1.082   .     S
H918   C1167   1.083   .     S
C941   O1027   1.310   .     A
C941   O1030   1.309   .     A
C941   C959    1.457   .     S
C942   C958    1.400   .     A
C942   F994    1.358   .     S
C942   C1038   1.386   .     S
C943   C958    1.407   .     A
C943   F995    1.352   .     S
C943   C1084   1.382   .     S
C944   C959    1.402   .     A
C944   F996    1.348   .     S
C945   C956    1.401   .     A
C945   C949    1.391   .     A
C945   H997    1.084   .     S
C946   H1008   1.084   .     S
C946   C957    1.397   .     A
C946   C950    1.391   .     A
C947   C951    1.391   .     A
C947   C957    1.398   .     A
C947   H1018   1.084   .     S
C948   H1019   1.083   .     S
C948   C956    1.398   .     A
C948   C953    1.392   .     A
C949   H1020   1.083   .     S
C949   C954    1.398   .     A
C950   C955    1.397   .     A
C950   H1021   1.071   .     S
C951   C955    1.407   .     A
C951   H1022   1.080   .     S
C952   O1028   1.306   .     A
C952   O1029   1.315   .     A
C952   C958    1.461   .     S
C953   C954    1.398   .     A
C953   H1023   1.083   .     S
C954   C963    1.445   .     S
C955   C974    1.473   .     S
C957   C110    1.455   1_556 S
C959   C990    1.400   .     A
C960   C985    1.487   .     S
C960   C966    1.408   .     A
C960   C961    1.403   .     A
C961   H1024   1.079   .     S
C961   C962    1.398   .     A
C962   H998    1.082   .     S
C962   C964    1.397   .     A
C963   O1031   1.311   .     A
C963   O1034   1.303   .     A
C964   C965    1.396   .     A
C964   H999    1.082   .     S
C965   H1000   1.082   .     S
C965   C966    1.398   .     A
C966   H1001   1.083   .     S
C967   C987    1.487   .     S
C967   C972    1.406   .     A
C967   C968    1.403   .     A
C968   C969    1.398   .     A
C968   H1002   1.071   .     S
C969   H1003   1.082   .     S
C969   C970    1.396   .     A
C970   C971    1.396   .     A
C970   H1098   1.082   .     S
C971   C972    1.398   .     A
C971   H1005   1.082   .     S
C972   H1006   1.084   .     S
C973   C979    1.413   .     A
C973   C975    1.401   .     A
C973   C988    1.492   .     S
C974   O1033   1.307   .     A
C974   O1032   1.321   .     A
C975   C976    1.399   .     A
C975   H1007   1.062   .     S
C976   C977    1.396   .     A
C976   H1009   1.082   .     S
C977   C978    1.396   .     A
C977   H1010   1.082   .     S
C978   C979    1.399   .     A
C978   H1575   1.082   1_545 S
C979   H1576   1.083   1_545 S
C980   C989    1.483   .     S
C980   C981    1.410   .     A
C980   C986    1.405   .     A
C981   C982    1.398   .     A
C981   H1013   1.084   .     S
C982   H1014   1.082   .     S
C982   C983    1.396   .     A
C983   C984    1.397   .     A
C983   H1015   1.082   .     S
C984   H1016   1.082   .     S
C984   C986    1.398   .     A
C985   N1026   1.376   .     A
C985   C1553   1.438   1_545 S
C986   H1017   1.076   .     S
C987   N1025   1.370   .     A
C987   C1270   1.425   .     S
C988   N1026   1.391   .     A
C988   C1551   1.425   1_545 S
C989   N1025   1.386   .     A
C989   C1267   1.438   .     S
C990   F993    1.358   .     S
Cu991  N1025   2.055   .     S
Cu991  O1031   1.942   .     S
Cu991  Cu992   2.735   .     S
Cu991  O1027   1.973   .     S
Cu991  O1033   1.928   .     S
Cu991  O1029   1.968   .     S
Cu992  O1030   1.968   .     S
Cu992  O1034   1.928   .     S
Cu992  O1028   1.973   .     S
Cu992  O1032   1.942   .     S
Cu992  N1026   2.055   .     S
H1011  C1260   1.082   .     S
H1012  C1261   1.083   .     S
C1035  O1121   1.310   .     A
C1035  O1124   1.309   .     A
C1035  C1053   1.457   .     S
C1036  C1052   1.400   .     A
C1036  F1088   1.358   .     S
C1036  C850    1.386   1_655 S
C1037  C1052   1.407   .     A
C1037  F1089   1.352   .     S
C1037  C896    1.382   1_655 S
C1038  C1053   1.402   .     A
C1038  F1090   1.348   .     S
C1039  C1050   1.401   .     A
C1039  C1043   1.391   .     A
C1039  H1091   1.084   .     S
C1040  H1102   1.084   .     S
C1040  C1051   1.397   .     A
C1040  C1044   1.391   .     A
C1041  C1045   1.391   .     A
C1041  C1051   1.398   .     A
C1041  H1112   1.084   .     S
C1042  H1113   1.083   .     S
C1042  C1050   1.398   .     A
C1042  C1047   1.392   .     A
C1043  H1114   1.083   .     S
C1043  C1048   1.398   .     A
C1044  C1049   1.397   .     A
C1044  H1115   1.071   .     S
C1045  C1049   1.407   .     A
C1045  H1116   1.080   .     S
C1046  O1122   1.306   .     A
C1046  O1123   1.315   .     A
C1046  C1052   1.461   .     S
C1047  C1048   1.398   .     A
C1047  H1117   1.083   .     S
C1048  C1057   1.445   .     S
C1049  C1068   1.473   .     S
C1051  C204    1.455   1_556 S
C1053  C1084   1.400   .     A
C1054  C1079   1.487   .     S
C1054  C1060   1.408   .     A
C1054  C1055   1.403   .     A
C1055  H1118   1.079   .     S
C1055  C1056   1.398   .     A
C1056  H1092   1.082   .     S
C1056  C1058   1.397   .     A
C1057  O1125   1.311   .     A
C1057  O1128   1.303   .     A
C1058  C1059   1.396   .     A
C1058  H1093   1.082   .     S
C1059  H1094   1.082   .     S
C1059  C1060   1.398   .     A
C1060  H1095   1.083   .     S
C1061  C1081   1.487   .     S
C1061  C1066   1.406   .     A
C1061  C1062   1.403   .     A
C1062  C1063   1.398   .     A
C1062  H1096   1.071   .     S
C1063  H1097   1.082   .     S
C1063  C1064   1.396   .     A
C1064  C1065   1.396   .     A
C1064  H910    1.082   1_655 S
C1065  C1066   1.398   .     A
C1065  H1099   1.082   .     S
C1066  H1100   1.084   .     S
C1067  C1073   1.413   .     A
C1067  C1069   1.401   .     A
C1067  C1082   1.492   .     S
C1068  O1127   1.307   .     A
C1068  O1126   1.321   .     A
C1069  C1070   1.399   .     A
C1069  H1101   1.062   .     S
C1070  C1071   1.396   .     A
C1070  H1103   1.082   .     S
C1071  C1072   1.396   .     A
C1071  H1104   1.082   .     S
C1072  C1073   1.399   .     A
C1072  H1669   1.082   1_545 S
C1073  H1670   1.083   1_545 S
C1074  C1083   1.483   .     S
C1074  C1075   1.410   .     A
C1074  C1080   1.405   .     A
C1075  C1076   1.398   .     A
C1075  H1107   1.084   .     S
C1076  H1108   1.082   .     S
C1076  C1077   1.396   .     A
C1077  C1078   1.397   .     A
C1077  H1109   1.082   .     S
C1078  H1110   1.082   .     S
C1078  C1080   1.398   .     A
C1079  N1120   1.376   .     A
C1079  C1647   1.438   1_545 S
C1080  H1111   1.076   .     S
C1081  N1119   1.370   .     A
C1081  C1364   1.425   .     S
C1082  N1120   1.391   .     A
C1082  C1645   1.425   1_545 S
C1083  N1119   1.386   .     A
C1083  C1361   1.438   .     S
C1084  F1087   1.358   .     S
Cu1085 N1119   2.055   .     S
Cu1085 O1125   1.942   .     S
Cu1085 Cu1086  2.735   .     S
Cu1085 O1121   1.973   .     S
Cu1085 O1127   1.928   .     S
Cu1085 O1123   1.968   .     S
Cu1086 O1124   1.968   .     S
Cu1086 O1128   1.928   .     S
Cu1086 O1122   1.973   .     S
Cu1086 O1126   1.942   .     S
Cu1086 N1120   2.055   .     S
H1105  C1354   1.082   .     S
H1106  C1355   1.083   .     S
C1129  O1215   1.310   .     A
C1129  O1218   1.309   .     A
C1129  C1147   1.457   .     S
C1130  C1146   1.400   .     A
C1130  F1182   1.358   .     S
C1130  C1226   1.386   .     S
C1131  C1146   1.407   .     A
C1131  F1183   1.352   .     S
C1131  C1272   1.382   .     S
C1132  C1147   1.402   .     A
C1132  F1184   1.348   .     S
C1132  C1318   1.386   1_455 S
C1133  C1144   1.401   .     A
C1133  C1137   1.391   .     A
C1133  H1185   1.084   .     S
C1134  H1196   1.084   .     S
C1134  C1145   1.397   .     A
C1134  C1138   1.391   .     A
C1135  C1139   1.391   .     A
C1135  C1145   1.398   .     A
C1135  H1206   1.084   .     S
C1136  H1207   1.083   .     S
C1136  C1144   1.398   .     A
C1136  C1141   1.392   .     A
C1137  H1208   1.083   .     S
C1137  C1142   1.398   .     A
C1138  C1143   1.397   .     A
C1138  H1209   1.071   .     S
C1139  C1143   1.407   .     A
C1139  H1210   1.080   .     S
C1140  O1216   1.306   .     A
C1140  O1217   1.315   .     A
C1140  C1146   1.461   .     S
C1141  C1142   1.398   .     A
C1141  H1211   1.083   .     S
C1142  C1151   1.445   .     S
C1143  C1162   1.473   .     S
C1145  C298    1.455   1_556 S
C1147  C1178   1.400   .     A
C1148  C1173   1.487   .     S
C1148  C1154   1.408   .     A
C1148  C1149   1.403   .     A
C1149  H1212   1.079   .     S
C1149  C1150   1.398   .     A
C1150  H1186   1.082   .     S
C1150  C1152   1.397   .     A
C1151  O1219   1.311   .     A
C1151  O1222   1.303   .     A
C1152  C1153   1.396   .     A
C1152  H1187   1.082   .     S
C1153  H1188   1.082   .     S
C1153  C1154   1.398   .     A
C1154  H1189   1.083   .     S
C1155  C1175   1.487   .     S
C1155  C1160   1.406   .     A
C1155  C1156   1.403   .     A
C1156  C1157   1.398   .     A
C1156  H1190   1.071   .     S
C1157  H1191   1.082   .     S
C1157  C1158   1.396   .     A
C1158  C1159   1.396   .     A
C1158  H1286   1.082   .     S
C1159  C1160   1.398   .     A
C1159  H1193   1.082   .     S
C1160  H1194   1.084   .     S
C1161  C1167   1.413   .     A
C1161  C1163   1.401   .     A
C1161  C1176   1.492   .     S
C1162  O1221   1.307   .     A
C1162  O1220   1.321   .     A
C1163  C1164   1.399   .     A
C1163  H1195   1.062   .     S
C1164  C1165   1.396   .     A
C1164  H1197   1.082   .     S
C1165  C1166   1.396   .     A
C1165  H1198   1.082   .     S
C1166  C1167   1.399   .     A
C1168  C1177   1.483   .     S
C1168  C1169   1.410   .     A
C1168  C1174   1.405   .     A
C1169  C1170   1.398   .     A
C1169  H1201   1.084   .     S
C1170  H1202   1.082   .     S
C1170  C1171   1.396   .     A
C1171  C1172   1.397   .     A
C1171  H1203   1.082   .     S
C1172  H1204   1.082   .     S
C1172  C1174   1.398   .     A
C1173  N1214   1.376   .     A
C1174  H1205   1.076   .     S
C1175  N1213   1.370   .     A
C1175  C1458   1.425   .     S
C1176  N1214   1.391   .     A
C1177  N1213   1.386   .     A
C1177  C1455   1.438   .     S
C1178  F1181   1.358   .     S
C1178  C1319   1.382   1_455 S
Cu1179 N1213   2.055   .     S
Cu1179 O1219   1.942   .     S
Cu1179 Cu1180  2.735   .     S
Cu1179 O1215   1.973   .     S
Cu1179 O1221   1.928   .     S
Cu1179 O1217   1.968   .     S
Cu1180 O1218   1.968   .     S
Cu1180 O1222   1.928   .     S
Cu1180 O1216   1.973   .     S
Cu1180 O1220   1.942   .     S
Cu1180 N1214   2.055   .     S
H1192  C1346   1.082   1_455 S
H1199  C1448   1.082   .     S
H1200  C1449   1.083   .     S
C1223  O1309   1.310   .     A
C1223  O1312   1.309   .     A
C1223  C1241   1.457   .     S
C1224  C1240   1.400   .     A
C1224  F1276   1.358   .     S
C1224  C1320   1.386   .     S
C1225  C1240   1.407   .     A
C1225  F1277   1.352   .     S
C1225  C1366   1.382   .     S
C1226  C1241   1.402   .     A
C1226  F1278   1.348   .     S
C1227  C1238   1.401   .     A
C1227  C1231   1.391   .     A
C1227  H1279   1.084   .     S
C1228  H1290   1.084   .     S
C1228  C1239   1.397   .     A
C1228  C1232   1.391   .     A
C1229  C1233   1.391   .     A
C1229  C1239   1.398   .     A
C1229  H1300   1.084   .     S
C1230  H1301   1.083   .     S
C1230  C1238   1.398   .     A
C1230  C1235   1.392   .     A
C1231  H1302   1.083   .     S
C1231  C1236   1.398   .     A
C1232  C1237   1.397   .     A
C1232  H1303   1.071   .     S
C1233  C1237   1.407   .     A
C1233  H1304   1.080   .     S
C1234  O1310   1.306   .     A
C1234  O1311   1.315   .     A
C1234  C1240   1.461   .     S
C1235  C1236   1.398   .     A
C1235  H1305   1.083   .     S
C1236  C1245   1.445   .     S
C1237  C1256   1.473   .     S
C1239  C392    1.455   1_556 S
C1241  C1272   1.400   .     A
C1242  C1267   1.487   .     S
C1242  C1248   1.408   .     A
C1242  C1243   1.403   .     A
C1243  H1306   1.079   .     S
C1243  C1244   1.398   .     A
C1244  H1280   1.082   .     S
C1244  C1246   1.397   .     A
C1245  O1313   1.311   .     A
C1245  O1316   1.303   .     A
C1246  C1247   1.396   .     A
C1246  H1281   1.082   .     S
C1247  H1282   1.082   .     S
C1247  C1248   1.398   .     A
C1248  H1283   1.083   .     S
C1249  C1269   1.487   .     S
C1249  C1254   1.406   .     A
C1249  C1250   1.403   .     A
C1250  C1251   1.398   .     A
C1250  H1284   1.071   .     S
C1251  H1285   1.082   .     S
C1251  C1252   1.396   .     A
C1252  C1253   1.396   .     A
C1252  H1380   1.082   .     S
C1253  C1254   1.398   .     A
C1253  H1287   1.082   .     S
C1254  H1288   1.084   .     S
C1255  C1261   1.413   .     A
C1255  C1257   1.401   .     A
C1255  C1270   1.492   .     S
C1256  O1315   1.307   .     A
C1256  O1314   1.321   .     A
C1257  C1258   1.399   .     A
C1257  H1289   1.062   .     S
C1258  C1259   1.396   .     A
C1258  H1291   1.082   .     S
C1259  C1260   1.396   .     A
C1259  H1292   1.082   .     S
C1260  C1261   1.399   .     A
C1262  C1271   1.483   .     S
C1262  C1263   1.410   .     A
C1262  C1268   1.405   .     A
C1263  C1264   1.398   .     A
C1263  H1295   1.084   .     S
C1264  H1296   1.082   .     S
C1264  C1265   1.396   .     A
C1265  C1266   1.397   .     A
C1265  H1297   1.082   .     S
C1266  H1298   1.082   .     S
C1266  C1268   1.398   .     A
C1267  N1308   1.376   .     A
C1268  H1299   1.076   .     S
C1269  N1307   1.370   .     A
C1269  C1552   1.425   .     S
C1270  N1308   1.391   .     A
C1271  N1307   1.386   .     A
C1271  C1549   1.438   .     S
C1272  F1275   1.358   .     S
Cu1273 N1307   2.055   .     S
Cu1273 O1313   1.942   .     S
Cu1273 Cu1274  2.735   .     S
Cu1273 O1309   1.973   .     S
Cu1273 O1315   1.928   .     S
Cu1273 O1311   1.968   .     S
Cu1274 O1312   1.968   .     S
Cu1274 O1316   1.928   .     S
Cu1274 O1310   1.973   .     S
Cu1274 O1314   1.942   .     S
Cu1274 N1308   2.055   .     S
H1293  C1542   1.082   .     S
H1294  C1543   1.083   .     S
C1317  O1403   1.310   .     A
C1317  O1406   1.309   .     A
C1317  C1335   1.457   .     S
C1318  C1334   1.400   .     A
C1318  F1370   1.358   .     S
C1318  C1132   1.386   1_655 S
C1319  C1334   1.407   .     A
C1319  F1371   1.352   .     S
C1319  C1178   1.382   1_655 S
C1320  C1335   1.402   .     A
C1320  F1372   1.348   .     S
C1321  C1332   1.401   .     A
C1321  C1325   1.391   .     A
C1321  H1373   1.084   .     S
C1322  H1384   1.084   .     S
C1322  C1333   1.397   .     A
C1322  C1326   1.391   .     A
C1323  C1327   1.391   .     A
C1323  C1333   1.398   .     A
C1323  H1394   1.084   .     S
C1324  H1395   1.083   .     S
C1324  C1332   1.398   .     A
C1324  C1329   1.392   .     A
C1325  H1396   1.083   .     S
C1325  C1330   1.398   .     A
C1326  C1331   1.397   .     A
C1326  H1397   1.071   .     S
C1327  C1331   1.407   .     A
C1327  H1398   1.080   .     S
C1328  O1404   1.306   .     A
C1328  O1405   1.315   .     A
C1328  C1334   1.461   .     S
C1329  C1330   1.398   .     A
C1329  H1399   1.083   .     S
C1330  C1339   1.445   .     S
C1331  C1350   1.473   .     S
C1333  C486    1.455   1_556 S
C1335  C1366   1.400   .     A
C1336  C1361   1.487   .     S
C1336  C1342   1.408   .     A
C1336  C1337   1.403   .     A
C1337  H1400   1.079   .     S
C1337  C1338   1.398   .     A
C1338  H1374   1.082   .     S
C1338  C1340   1.397   .     A
C1339  O1407   1.311   .     A
C1339  O1410   1.303   .     A
C1340  C1341   1.396   .     A
C1340  H1375   1.082   .     S
C1341  H1376   1.082   .     S
C1341  C1342   1.398   .     A
C1342  H1377   1.083   .     S
C1343  C1363   1.487   .     S
C1343  C1348   1.406   .     A
C1343  C1344   1.403   .     A
C1344  C1345   1.398   .     A
C1344  H1378   1.071   .     S
C1345  H1379   1.082   .     S
C1345  C1346   1.396   .     A
C1346  C1347   1.396   .     A
C1346  H1192   1.082   1_655 S
C1347  C1348   1.398   .     A
C1347  H1381   1.082   .     S
C1348  H1382   1.084   .     S
C1349  C1355   1.413   .     A
C1349  C1351   1.401   .     A
C1349  C1364   1.492   .     S
C1350  O1409   1.307   .     A
C1350  O1408   1.321   .     A
C1351  C1352   1.399   .     A
C1351  H1383   1.062   .     S
C1352  C1353   1.396   .     A
C1352  H1385   1.082   .     S
C1353  C1354   1.396   .     A
C1353  H1386   1.082   .     S
C1354  C1355   1.399   .     A
C1356  C1365   1.483   .     S
C1356  C1357   1.410   .     A
C1356  C1362   1.405   .     A
C1357  C1358   1.398   .     A
C1357  H1389   1.084   .     S
C1358  H1390   1.082   .     S
C1358  C1359   1.396   .     A
C1359  C1360   1.397   .     A
C1359  H1391   1.082   .     S
C1360  H1392   1.082   .     S
C1360  C1362   1.398   .     A
C1361  N1402   1.376   .     A
C1362  H1393   1.076   .     S
C1363  N1401   1.370   .     A
C1363  C1646   1.425   .     S
C1364  N1402   1.391   .     A
C1365  N1401   1.386   .     A
C1365  C1643   1.438   .     S
C1366  F1369   1.358   .     S
Cu1367 N1401   2.055   .     S
Cu1367 O1407   1.942   .     S
Cu1367 Cu1368  2.735   .     S
Cu1367 O1403   1.973   .     S
Cu1367 O1409   1.928   .     S
Cu1367 O1405   1.968   .     S
Cu1368 O1406   1.968   .     S
Cu1368 O1410   1.928   .     S
Cu1368 O1404   1.973   .     S
Cu1368 O1408   1.942   .     S
Cu1368 N1402   2.055   .     S
H1387  C1636   1.082   .     S
H1388  C1637   1.083   .     S
C1411  O1497   1.310   .     A
C1411  O1500   1.309   .     A
C1411  C1429   1.457   .     S
C1412  C1428   1.400   .     A
C1412  F1464   1.358   .     S
C1412  C1508   1.386   .     S
C1413  C1428   1.407   .     A
C1413  F1465   1.352   .     S
C1413  C1554   1.382   .     S
C1414  C1429   1.402   .     A
C1414  F1466   1.348   .     S
C1414  C1600   1.386   1_455 S
C1415  C1426   1.401   .     A
C1415  C1419   1.391   .     A
C1415  H1467   1.084   .     S
C1416  H1478   1.084   .     S
C1416  C1427   1.397   .     A
C1416  C1420   1.391   .     A
C1417  C1421   1.391   .     A
C1417  C1427   1.398   .     A
C1417  H1488   1.084   .     S
C1418  H1489   1.083   .     S
C1418  C1426   1.398   .     A
C1418  C1423   1.392   .     A
C1419  H1490   1.083   .     S
C1419  C1424   1.398   .     A
C1420  C1425   1.397   .     A
C1420  H1491   1.071   .     S
C1421  C1425   1.407   .     A
C1421  H1492   1.080   .     S
C1422  O1498   1.306   .     A
C1422  O1499   1.315   .     A
C1422  C1428   1.461   .     S
C1423  C1424   1.398   .     A
C1423  H1493   1.083   .     S
C1424  C1433   1.445   .     S
C1425  C1444   1.473   .     S
C1427  C580    1.455   1_556 S
C1429  C1460   1.400   .     A
C1430  C1455   1.487   .     S
C1430  C1436   1.408   .     A
C1430  C1431   1.403   .     A
C1431  H1494   1.079   .     S
C1431  C1432   1.398   .     A
C1432  H1468   1.082   .     S
C1432  C1434   1.397   .     A
C1433  O1501   1.311   .     A
C1433  O1504   1.303   .     A
C1434  C1435   1.396   .     A
C1434  H1469   1.082   .     S
C1435  H1470   1.082   .     S
C1435  C1436   1.398   .     A
C1436  H1471   1.083   .     S
C1437  C1457   1.487   .     S
C1437  C1442   1.406   .     A
C1437  C1438   1.403   .     A
C1438  C1439   1.398   .     A
C1438  H1472   1.071   .     S
C1439  H1473   1.082   .     S
C1439  C1440   1.396   .     A
C1440  C1441   1.396   .     A
C1440  H1568   1.082   .     S
C1441  C1442   1.398   .     A
C1441  H1475   1.082   .     S
C1442  H1476   1.084   .     S
C1443  C1449   1.413   .     A
C1443  C1445   1.401   .     A
C1443  C1458   1.492   .     S
C1444  O1503   1.307   .     A
C1444  O1502   1.321   .     A
C1445  C1446   1.399   .     A
C1445  H1477   1.062   .     S
C1446  C1447   1.396   .     A
C1446  H1479   1.082   .     S
C1447  C1448   1.396   .     A
C1447  H1480   1.082   .     S
C1448  C1449   1.399   .     A
C1450  C1459   1.483   .     S
C1450  C1451   1.410   .     A
C1450  C1456   1.405   .     A
C1451  C1452   1.398   .     A
C1451  H1483   1.084   .     S
C1452  H1484   1.082   .     S
C1452  C1453   1.396   .     A
C1453  C1454   1.397   .     A
C1453  H1485   1.082   .     S
C1454  H1486   1.082   .     S
C1454  C1456   1.398   .     A
C1455  N1496   1.376   .     A
C1456  H1487   1.076   .     S
C1457  N1495   1.370   .     A
C1457  C894    1.425   1_565 S
C1458  N1496   1.391   .     A
C1459  N1495   1.386   .     A
C1459  C891    1.438   1_565 S
C1460  F1463   1.358   .     S
C1460  C1601   1.382   1_455 S
Cu1461 N1495   2.055   .     S
Cu1461 O1501   1.942   .     S
Cu1461 Cu1462  2.735   .     S
Cu1461 O1497   1.973   .     S
Cu1461 O1503   1.928   .     S
Cu1461 O1499   1.968   .     S
Cu1462 O1500   1.968   .     S
Cu1462 O1504   1.928   .     S
Cu1462 O1498   1.973   .     S
Cu1462 O1502   1.942   .     S
Cu1462 N1496   2.055   .     S
H1474  C1628   1.082   1_455 S
H1481  C884    1.082   1_565 S
H1482  C885    1.083   1_565 S
C1505  O1591   1.310   .     A
C1505  O1594   1.309   .     A
C1505  C1523   1.457   .     S
C1506  C1522   1.400   .     A
C1506  F1558   1.358   .     S
C1506  C1602   1.386   .     S
C1507  C1522   1.407   .     A
C1507  F1559   1.352   .     S
C1507  C1648   1.382   .     S
C1508  C1523   1.402   .     A
C1508  F1560   1.348   .     S
C1509  C1520   1.401   .     A
C1509  C1513   1.391   .     A
C1509  H1561   1.084   .     S
C1510  H1572   1.084   .     S
C1510  C1521   1.397   .     A
C1510  C1514   1.391   .     A
C1511  C1515   1.391   .     A
C1511  C1521   1.398   .     A
C1511  H1582   1.084   .     S
C1512  H1583   1.083   .     S
C1512  C1520   1.398   .     A
C1512  C1517   1.392   .     A
C1513  H1584   1.083   .     S
C1513  C1518   1.398   .     A
C1514  C1519   1.397   .     A
C1514  H1585   1.071   .     S
C1515  C1519   1.407   .     A
C1515  H1586   1.080   .     S
C1516  O1592   1.306   .     A
C1516  O1593   1.315   .     A
C1516  C1522   1.461   .     S
C1517  C1518   1.398   .     A
C1517  H1587   1.083   .     S
C1518  C1527   1.445   .     S
C1519  C1538   1.473   .     S
C1521  C674    1.455   1_556 S
C1523  C1554   1.400   .     A
C1524  C1549   1.487   .     S
C1524  C1530   1.408   .     A
C1524  C1525   1.403   .     A
C1525  H1588   1.079   .     S
C1525  C1526   1.398   .     A
C1526  H1562   1.082   .     S
C1526  C1528   1.397   .     A
C1527  O1595   1.311   .     A
C1527  O1598   1.303   .     A
C1528  C1529   1.396   .     A
C1528  H1563   1.082   .     S
C1529  H1564   1.082   .     S
C1529  C1530   1.398   .     A
C1530  H1565   1.083   .     S
C1531  C1551   1.487   .     S
C1531  C1536   1.406   .     A
C1531  C1532   1.403   .     A
C1532  C1533   1.398   .     A
C1532  H1566   1.071   .     S
C1533  H1567   1.082   .     S
C1533  C1534   1.396   .     A
C1534  C1535   1.396   .     A
C1534  H1662   1.082   .     S
C1535  C1536   1.398   .     A
C1535  H1569   1.082   .     S
C1536  H1570   1.084   .     S
C1537  C1543   1.413   .     A
C1537  C1539   1.401   .     A
C1537  C1552   1.492   .     S
C1538  O1597   1.307   .     A
C1538  O1596   1.321   .     A
C1539  C1540   1.399   .     A
C1539  H1571   1.062   .     S
C1540  C1541   1.396   .     A
C1540  H1573   1.082   .     S
C1541  C1542   1.396   .     A
C1541  H1574   1.082   .     S
C1542  C1543   1.399   .     A
C1544  C1553   1.483   .     S
C1544  C1545   1.410   .     A
C1544  C1550   1.405   .     A
C1545  C1546   1.398   .     A
C1545  H1577   1.084   .     S
C1546  H1578   1.082   .     S
C1546  C1547   1.396   .     A
C1547  C1548   1.397   .     A
C1547  H1579   1.082   .     S
C1548  H1580   1.082   .     S
C1548  C1550   1.398   .     A
C1549  N1590   1.376   .     A
C1550  H1581   1.076   .     S
C1551  N1589   1.370   .     A
C1551  C988    1.425   1_565 S
C1552  N1590   1.391   .     A
C1553  N1589   1.386   .     A
C1553  C985    1.438   1_565 S
C1554  F1557   1.358   .     S
Cu1555 N1589   2.055   .     S
Cu1555 O1595   1.942   .     S
Cu1555 Cu1556  2.735   .     S
Cu1555 O1591   1.973   .     S
Cu1555 O1597   1.928   .     S
Cu1555 O1593   1.968   .     S
Cu1556 O1594   1.968   .     S
Cu1556 O1598   1.928   .     S
Cu1556 O1592   1.973   .     S
Cu1556 O1596   1.942   .     S
Cu1556 N1590   2.055   .     S
H1575  C978    1.082   1_565 S
H1576  C979    1.083   1_565 S
C1599  O1685   1.310   .     A
C1599  O1688   1.309   .     A
C1599  C1617   1.457   .     S
C1600  C1616   1.400   .     A
C1600  F1652   1.358   .     S
C1600  C1414   1.386   1_655 S
C1601  C1616   1.407   .     A
C1601  F1653   1.352   .     S
C1601  C1460   1.382   1_655 S
C1602  C1617   1.402   .     A
C1602  F1654   1.348   .     S
C1603  C1614   1.401   .     A
C1603  C1607   1.391   .     A
C1603  H1655   1.084   .     S
C1604  H1666   1.084   .     S
C1604  C1615   1.397   .     A
C1604  C1608   1.391   .     A
C1605  C1609   1.391   .     A
C1605  C1615   1.398   .     A
C1605  H1676   1.084   .     S
C1606  H1677   1.083   .     S
C1606  C1614   1.398   .     A
C1606  C1611   1.392   .     A
C1607  H1678   1.083   .     S
C1607  C1612   1.398   .     A
C1608  C1613   1.397   .     A
C1608  H1679   1.071   .     S
C1609  C1613   1.407   .     A
C1609  H1680   1.080   .     S
C1610  O1686   1.306   .     A
C1610  O1687   1.315   .     A
C1610  C1616   1.461   .     S
C1611  C1612   1.398   .     A
C1611  H1681   1.083   .     S
C1612  C1621   1.445   .     S
C1613  C1632   1.473   .     S
C1615  C768    1.455   1_556 S
C1617  C1648   1.400   .     A
C1618  C1643   1.487   .     S
C1618  C1624   1.408   .     A
C1618  C1619   1.403   .     A
C1619  H1682   1.079   .     S
C1619  C1620   1.398   .     A
C1620  H1656   1.082   .     S
C1620  C1622   1.397   .     A
C1621  O1689   1.311   .     A
C1621  O1692   1.303   .     A
C1622  C1623   1.396   .     A
C1622  H1657   1.082   .     S
C1623  H1658   1.082   .     S
C1623  C1624   1.398   .     A
C1624  H1659   1.083   .     S
C1625  C1645   1.487   .     S
C1625  C1630   1.406   .     A
C1625  C1626   1.403   .     A
C1626  C1627   1.398   .     A
C1626  H1660   1.071   .     S
C1627  H1661   1.082   .     S
C1627  C1628   1.396   .     A
C1628  C1629   1.396   .     A
C1628  H1474   1.082   1_655 S
C1629  C1630   1.398   .     A
C1629  H1663   1.082   .     S
C1630  H1664   1.084   .     S
C1631  C1637   1.413   .     A
C1631  C1633   1.401   .     A
C1631  C1646   1.492   .     S
C1632  O1691   1.307   .     A
C1632  O1690   1.321   .     A
C1633  C1634   1.399   .     A
C1633  H1665   1.062   .     S
C1634  C1635   1.396   .     A
C1634  H1667   1.082   .     S
C1635  C1636   1.396   .     A
C1635  H1668   1.082   .     S
C1636  C1637   1.399   .     A
C1638  C1647   1.483   .     S
C1638  C1639   1.410   .     A
C1638  C1644   1.405   .     A
C1639  C1640   1.398   .     A
C1639  H1671   1.084   .     S
C1640  H1672   1.082   .     S
C1640  C1641   1.396   .     A
C1641  C1642   1.397   .     A
C1641  H1673   1.082   .     S
C1642  H1674   1.082   .     S
C1642  C1644   1.398   .     A
C1643  N1684   1.376   .     A
C1644  H1675   1.076   .     S
C1645  N1683   1.370   .     A
C1645  C1082   1.425   1_565 S
C1646  N1684   1.391   .     A
C1647  N1683   1.386   .     A
C1647  C1079   1.438   1_565 S
C1648  F1651   1.358   .     S
Cu1649 N1683   2.055   .     S
Cu1649 O1689   1.942   .     S
Cu1649 Cu1650  2.735   .     S
Cu1649 O1685   1.973   .     S
Cu1649 O1691   1.928   .     S
Cu1649 O1687   1.968   .     S
Cu1650 O1688   1.968   .     S
Cu1650 O1692   1.928   .     S
Cu1650 O1686   1.973   .     S
Cu1650 O1690   1.942   .     S
Cu1650 N1684   2.055   .     S
H1669  C1072   1.082   1_565 S
H1670  C1073   1.083   1_565 S
